*Heading
** Job name: TestVSI-1 Model name: Model-1
** Generated by: Abaqus/CAE 2022
*Preprint, echo=NO, model=NO, history=NO, contact=NO
**
** PARTS
**
*Part, name=Cube
*Node
      1,           5.,           0.,           5.
      2,          4.5,           0.,           5.
      3,           4.,           0.,           5.
      4,          3.5,           0.,           5.
      5,           3.,           0.,           5.
      6,          2.5,           0.,           5.
      7,           2.,           0.,           5.
      8,          1.5,           0.,           5.
      9,           1.,           0.,           5.
     10,          0.5,           0.,           5.
     11,           0.,           0.,           5.
     12,           5.,           0.,          4.5
     13,          4.5,           0.,          4.5
     14,           4.,           0.,          4.5
     15,          3.5,           0.,          4.5
     16,           3.,           0.,          4.5
     17,          2.5,           0.,          4.5
     18,           2.,           0.,          4.5
     19,          1.5,           0.,          4.5
     20,           1.,           0.,          4.5
** ... 1311 like lines cut
*Element, type=C3D8
   1,  122,  123,  134,  133,    1,    2,   13,   12
   2,  123,  124,  135,  134,    2,    3,   14,   13
   3,  124,  125,  136,  135,    3,    4,   15,   14
   4,  125,  126,  137,  136,    4,    5,   16,   15
   5,  126,  127,  138,  137,    5,    6,   17,   16
   6,  127,  128,  139,  138,    6,    7,   18,   17
   7,  128,  129,  140,  139,    7,    8,   19,   18
   8,  129,  130,  141,  140,    8,    9,   20,   19
   9,  130,  131,  142,  141,    9,   10,   21,   20
  10,  131,  132,  143,  142,   10,   11,   22,   21
  11,  133,  134,  145,  144,   12,   13,   24,   23
  12,  134,  135,  146,  145,   13,   14,   25,   24
  13,  135,  136,  147,  146,   14,   15,   26,   25
  14,  136,  137,  148,  147,   15,   16,   27,   26
  15,  137,  138,  149,  148,   16,   17,   28,   27
  16,  138,  139,  150,  149,   17,   18,   29,   28
  17,  139,  140,  151,  150,   18,   19,   30,   29
  18,  140,  141,  152,  151,   19,   20,   31,   30
  19,  141,  142,  153,  152,   20,   21,   32,   31
  20,  142,  143,  154,  153,   21,   22,   33,   32
** ... 980 like lines cut
*Nset, nset=Cube, generate
    1,  1331,     1
*Elset, elset=Cube, generate
    1,  1000,     1
** Section: Cube
*Solid Section, elset=Cube, material="Linear Elastic"
,
*End Part
**  
**
** ASSEMBLY
**
*Assembly, name=Assembly
**  
*Instance, name=Cube-1, part=Cube
*End Instance
**  
*Nset, nset=BottomFace, instance=Cube-1, generate
   1,  121,    1
*Elset, elset=BottomFace, instance=Cube-1, generate
   1,  100,    1
*Nset, nset="Corner 2", instance=Cube-1
 111,
*Nset, nset=Corner1, instance=Cube-1
 11,
*Nset, nset=TopFace, instance=Cube-1, generate
 1211,  1331,     1
*Elset, elset=TopFace, instance=Cube-1, generate
  901,  1000,     1
*End Assembly
** 
** MATERIALS
** 
*Material, name="Linear Elastic"
*Elastic
10., 0.49
** ----------------------------------------------------------------
** 
** STEP: Compression
** 
*Step, name=Compression, nlgeom=NO, inc=10000
*Static
0.01, 1., 1e-09, 0.1
** 
** BOUNDARY CONDITIONS
** 
** Name: BC-1 Type: Displacement/Rotation
*Boundary
BottomFace, 2, 2
** Name: BC-2 Type: Displacement/Rotation
*Boundary
TopFace, 2, 2, -0.5
** Name: BC-3 Type: Displacement/Rotation
*Boundary
Corner1, 1, 1
Corner1, 3, 3
** Name: BC-4 Type: Displacement/Rotation
*Boundary
"Corner 2", 3, 3
** 
** OUTPUT REQUESTS
** 
*Restart, write, frequency=0
** 
** FIELD OUTPUT: F-Output-1
** 
*Output, field, variable=PRESELECT
** 
** HISTORY OUTPUT: H-Output-1
** 
*Output, history, variable=PRESELECT
*End Step
