1

   Abaqus 2022                                  Date 23-Feb-2026   Time 12:00:55
   For use by UNIVERSITY OF MICHIGAN under license from Dassault Systemes or its subsidiary.

                                                                                 
                                                                                 
 STEP    1     INCREMENT     1     STEP TIME    0.00    


                        S T E P       1     S T A T I C   A N A L Y S I S


                                                                                          

     AUTOMATIC TIME CONTROL WITH -
          A SUGGESTED INITIAL TIME INCREMENT OF                1.000E-04
          AND A TOTAL TIME PERIOD OF                            1.00    
          THE MINIMUM TIME INCREMENT ALLOWED IS                1.000E-09
          THE MAXIMUM TIME INCREMENT ALLOWED IS                1.000E-02

     LINEAR EQUATION SOLVER TYPE         DIRECT SPARSE

 CONVERGENCE TOLERANCE PARAMETERS FOR FORCE    
     CRITERION FOR RESIDUAL FORCE     FOR A NONLINEAR PROBLEM          5.000E-03
     CRITERION FOR DISP.    CORRECTION IN A NONLINEAR PROBLEM          1.000E-02
     INITIAL VALUE OF TIME AVERAGE FORCE                               1.000E-02
     AVERAGE FORCE     IS TIME AVERAGE FORCE    
     ALTERNATE CRIT. FOR RESIDUAL FORCE     FOR A NONLINEAR PROBLEM    2.000E-02
     CRITERION FOR ZERO FORCE     RELATIVE TO TIME AVRG. FORCE         1.000E-05
     CRITERION FOR RESIDUAL FORCE     WHEN THERE IS ZERO FLUX          1.000E-05
     CRITERION FOR DISP.    CORRECTION WHEN THERE IS ZERO FLUX         1.000E-03
     CRITERION FOR RESIDUAL FORCE     FOR A LINEAR INCREMENT           1.000E-08
     FIELD CONVERSION RATIO                                             1.00    
     CRITERION FOR ZERO FORCE     REL. TO TIME AVRG. MAX. FORCE        1.000E-05
     CRITERION FOR ZERO DISP.    RELATIVE TO CHARACTERISTIC LENGTH     1.000E-08

 CONVERGENCE TOLERANCE PARAMETERS FOR PR. FLUX 
     CRITERION FOR RESIDUAL PR. FLUX  FOR A NONLINEAR PROBLEM          5.000E-03
     CRITERION FOR VOL. LM. CORRECTION IN A NONLINEAR PROBLEM          1.000E-02
     INITIAL VALUE OF TIME AVERAGE PR. FLUX                            1.000E-02
     AVERAGE PR. FLUX  IS TIME AVERAGE PR. FLUX 
     ALTERNATE CRIT. FOR RESIDUAL PR. FLUX  FOR A NONLINEAR PROBLEM    2.000E-02
     CRITERION FOR ZERO PR. FLUX  RELATIVE TO TIME AVRG. PR. FLUX      1.000E-05
     CRITERION FOR RESIDUAL PR. FLUX  WHEN THERE IS ZERO FLUX          1.000E-05
     CRITERION FOR VOL. LM. CORRECTION WHEN THERE IS ZERO FLUX         1.000E-03
     CRITERION FOR RESIDUAL PR. FLUX  FOR A LINEAR INCREMENT           1.000E-08
     FIELD CONVERSION RATIO                                             1.00    
     CRITERION FOR ZERO PR. FLUX  REL. TO TIME AVRG. MAX. PR. FLUX     1.000E-05

     VOLUMETRIC STRAIN COMPATIBILITY TOLERANCE FOR HYBRID SOLIDS       1.000E-05
     AXIAL STRAIN COMPATIBILITY TOLERANCE FOR HYBRID BEAMS             1.000E-05
     TRANS. SHEAR STRAIN COMPATIBILITY TOLERANCE FOR HYBRID BEAMS      1.000E-05
     SOFT CONTACT CONSTRAINT COMPATIBILITY TOLERANCE FOR P>P0          5.000E-03
     SOFT CONTACT CONSTRAINT COMPATIBILITY TOLERANCE FOR P=0.0         0.100    
     CONTACT FORCE ERROR TOLERANCE FOR CONVERT SDI=YES                 1.00    
     DISPLACEMENT COMPATIBILITY TOLERANCE FOR DCOUP ELEMENTS           1.000E-05
     ROTATION COMPATIBILITY TOLERANCE FOR DCOUP ELEMENTS               1.000E-05

 EQUILIBRIUM WILL BE CHECKED FOR SEVERE DISCONTINUITY ITERATIONS

 TIME INCREMENTATION CONTROL PARAMETERS:
     FIRST EQUILIBRIUM ITERATION FOR CONSECUTIVE DIVERGENCE CHECK              4
     EQUILIBRIUM ITERATION AT WHICH LOG. CONVERGENCE RATE CHECK BEGINS         8
     EQUILIBRIUM ITERATION AFTER WHICH ALTERNATE RESIDUAL IS USED              9
     MAXIMUM EQUILIBRIUM ITERATIONS ALLOWED                                   16
     EQUILIBRIUM ITERATION COUNT FOR CUT-BACK IN NEXT INCREMENT               10
     MAXIMUM EQUILIB. ITERS IN TWO INCREMENTS FOR TIME INCREMENT INCREASE      4
     MAXIMUM ITERATIONS FOR SEVERE DISCONTINUITIES                            50
     MAXIMUM ATTEMPTS ALLOWED IN AN INCREMENT                                  5
     MAXIMUM DISCON. ITERS IN TWO INCREMENTS FOR TIME INCREMENT INCREASE      50
     MAXIMUM CONTACT AUGMENTATIONS FOR *SURFACE BEHAVIOR,AUGMENTED LAGRANGE   50
     CUT-BACK FACTOR AFTER DIVERGENCE                                 0.2500    
     CUT-BACK FACTOR FOR TOO SLOW CONVERGENCE                         0.5000    
     CUT-BACK FACTOR AFTER TOO MANY EQUILIBRIUM ITERATIONS            0.7500    
     CUT-BACK FACTOR AFTER TOO MANY SEVERE DISCONTINUITY ITERATIONS   0.2500    
     CUT-BACK FACTOR AFTER PROBLEMS IN ELEMENT ASSEMBLY               0.2500    
     INCREASE FACTOR AFTER TWO INCREMENTS THAT CONVERGE QUICKLY        1.500    
     MAX. TIME INCREMENT INCREASE FACTOR ALLOWED                       1.500    
     MAX. TIME INCREMENT INCREASE FACTOR ALLOWED (DYNAMICS)            1.250    
     MAX. TIME INCREMENT INCREASE FACTOR ALLOWED (DIFFUSION)           2.000    
     MINIMUM TIME INCREMENT RATIO FOR EXTRAPOLATION TO OCCUR          0.1000    
     MAX. RATIO OF TIME INCREMENT TO STABILITY LIMIT                   1.000    
     FRACTION OF STABILITY LIMIT FOR NEW TIME INCREMENT               0.9500    
     TIME INCREMENT INCREASE FACTOR BEFORE A TIME POINT                1.000    
     GLOBAL STABILIZATION CONTROL IS NOT USED

          PRINT OF INCREMENT NUMBER, TIME, ETC., EVERY    1  INCREMENTS

     THE MAXIMUM NUMBER OF INCREMENTS IN THIS STEP IS                   10000

          LARGE DISPLACEMENT THEORY WILL BE USED

     LINEAR EXTRAPOLATION WILL BE USED

     CHARACTERISTIC ELEMENT LENGTH     0.758    

     DETAILS REGARDING ACTUAL SOLUTION WAVEFRONT REQUESTED

     DETAILED OUTPUT OF DIAGNOSTICS TO DATABASE REQUESTED

     PRINT OF INCREMENT NUMBER, TIME, ETC., TO THE MESSAGE FILE EVERY     1  INCREMENTS

     COLLECTING MODEL CONSTRAINT INFORMATION FOR OVERCONSTRAINT CHECKS

     COLLECTING STEP CONSTRAINT INFORMATION FOR OVERCONSTRAINT CHECKS


  INCREMENT     1 STARTS. ATTEMPT NUMBER  1, TIME INCREMENT  1.000E-04
 
	REGULARIZED SYMMETRIC DIRECT SPARSE SOLVER RUNNING ON
 	1 HOST:        1 MPI RANK  x 1 THREAD
 	NUMBER OF EQUATIONS:     5820
 	NUMBER OF RHS:           1
 	NUMBER OF FLOPS:         5.704e+08

     CHECK POINT   START OF SOLVER    

     CHECK POINT  END OF SOLVER       

       ELAPSED USER TIME (SEC)      =  0.10000    
       ELAPSED SYSTEM TIME (SEC)    =   0.0000    
       ELAPSED TOTAL CPU TIME (SEC) =  0.10000    
       ELAPSED WALLCLOCK TIME (SEC) =          0

               CONVERGENCE CHECKS FOR EQUILIBRIUM ITERATION     1


 AVERAGE FORCE                      5.130E-07   TIME AVG. FORCE       5.130E-07
 LARGEST RESIDUAL FORCE             5.055E-11   AT NODE        329   DOF  3
   INSTANCE: CUBE-1                                                                          
 LARGEST INCREMENT OF DISP.         9.940E-05   AT NODE         63   DOF  3
   INSTANCE: CUBE-1                                                                          
 LARGEST CORRECTION TO DISP.        9.940E-05   AT NODE         63   DOF  3
   INSTANCE: CUBE-1                                                                          
          DISP.    CORRECTION TOO LARGE COMPARED TO DISP.    INCREMENT

 AVERAGE PR. FLUX                   2.734E-10   TIME AVG. PR. FLUX    1.000E-02
 LARGEST RESIDUAL PR. FLUX          1.587E-08   AT NODE        614
   INSTANCE: CUBE-1                                                                          
 LARGEST INCREMENT OF VOL. LM.      1.195E-07   AT NODE        196
   INSTANCE: CUBE-1                                                                          
 LARGEST CORRECTION TO VOL. LM.     1.195E-07   AT NODE        196
   INSTANCE: CUBE-1                                                                          
          THERE IS ZERO PR. FLUX  EVERYWHERE
 

 ***WARNING: THERE IS ZERO PR. FLUX EVERYWHERE IN THE MODEL BASED ON THE 
             DEFAULT CRITERION. PLEASE CHECK THE VALUE OF THE AVERAGE PR. FLUX 
             DURING THE CURRENT ITERATION TO VERIFY THAT THE PR. FLUX IS SMALL 
             ENOUGH TO BE TREATED AS ZERO. IF NOT, PLEASE USE THE SOLUTION 
             CONTROLS TO RESET THE CRITERION FOR ZERO PR. FLUX.
 
	REGULARIZED SYMMETRIC DIRECT SPARSE SOLVER RUNNING ON
 	1 HOST:        1 MPI RANK  x 1 THREAD
 	NUMBER OF EQUATIONS:     5820
 	NUMBER OF RHS:           1
 	NUMBER OF FLOPS:         5.704e+08

     CHECK POINT   START OF SOLVER    

     CHECK POINT  END OF SOLVER       

       ELAPSED USER TIME (SEC)      =   0.0000    
       ELAPSED SYSTEM TIME (SEC)    =   0.0000    
       ELAPSED TOTAL CPU TIME (SEC) =   0.0000    
       ELAPSED WALLCLOCK TIME (SEC) =          0

               CONVERGENCE CHECKS FOR EQUILIBRIUM ITERATION     2


 AVERAGE FORCE                      5.130E-07   TIME AVG. FORCE       5.130E-07
 LARGEST RESIDUAL FORCE             1.566E-17   AT NODE        332   DOF  3
   INSTANCE: CUBE-1                                                                          
 LARGEST INCREMENT OF DISP.         9.940E-05   AT NODE         63   DOF  3
   INSTANCE: CUBE-1                                                                          
 LARGEST CORRECTION TO DISP.       -1.477E-09   AT NODE          6   DOF  3
   INSTANCE: CUBE-1                                                                          
          THE FORCE     EQUILIBRIUM EQUATIONS HAVE CONVERGED

 AVERAGE PR. FLUX                   2.286E-24   TIME AVG. PR. FLUX    1.000E-02
 LARGEST RESIDUAL PR. FLUX          3.250E-22   AT NODE        839
   INSTANCE: CUBE-1                                                                          
 LARGEST INCREMENT OF VOL. LM.      1.195E-07   AT NODE        278
   INSTANCE: CUBE-1                                                                          
 LARGEST CORRECTION TO VOL. LM.    -2.193E-12   AT NODE        196
   INSTANCE: CUBE-1                                                                          
          THERE IS ZERO PR. FLUX  EVERYWHERE
 

 ***WARNING: THERE IS ZERO PR. FLUX EVERYWHERE IN THE MODEL BASED ON THE 
             DEFAULT CRITERION. PLEASE CHECK THE VALUE OF THE AVERAGE PR. FLUX 
             DURING THE CURRENT ITERATION TO VERIFY THAT THE PR. FLUX IS SMALL 
             ENOUGH TO BE TREATED AS ZERO. IF NOT, PLEASE USE THE SOLUTION 
             CONTROLS TO RESET THE CRITERION FOR ZERO PR. FLUX.

 ITERATION SUMMARY FOR THE INCREMENT:   2 TOTAL ITERATIONS, OF WHICH
   0 ARE SEVERE DISCONTINUITY ITERATIONS AND  2 ARE EQUILIBRIUM ITERATIONS.

 TIME INCREMENT COMPLETED  1.000E-04,  FRACTION OF STEP COMPLETED  1.000E-04
 STEP TIME COMPLETED       1.000E-04,  TOTAL TIME COMPLETED        1.000E-04


  INCREMENT     2 STARTS. ATTEMPT NUMBER  1, TIME INCREMENT  1.000E-04
 
	REGULARIZED SYMMETRIC DIRECT SPARSE SOLVER RUNNING ON
 	1 HOST:        1 MPI RANK  x 1 THREAD
 	NUMBER OF EQUATIONS:     5820
 	NUMBER OF RHS:           1
 	NUMBER OF FLOPS:         5.704e+08

     CHECK POINT   START OF SOLVER    

     CHECK POINT  END OF SOLVER       

       ELAPSED USER TIME (SEC)      =  0.10000    
       ELAPSED SYSTEM TIME (SEC)    =   0.0000    
       ELAPSED TOTAL CPU TIME (SEC) =  0.10000    
       ELAPSED WALLCLOCK TIME (SEC) =          0

               CONVERGENCE CHECKS FOR EQUILIBRIUM ITERATION     1


 AVERAGE FORCE                      1.701E-06   TIME AVG. FORCE       1.107E-06
 LARGEST RESIDUAL FORCE             6.791E-18   AT NODE        318   DOF  3
   INSTANCE: CUBE-1                                                                          
 LARGEST INCREMENT OF DISP.         9.940E-05   AT NODE        294   DOF  3
   INSTANCE: CUBE-1                                                                          
 LARGEST CORRECTION TO DISP.       -2.954E-09   AT NODE         63   DOF  3
   INSTANCE: CUBE-1                                                                          
          THE FORCE     EQUILIBRIUM RESPONSE WAS LINEAR IN THIS INCREMENT

 AVERAGE PR. FLUX                   1.020E-16   TIME AVG. PR. FLUX    1.000E-02
 LARGEST RESIDUAL PR. FLUX          5.922E-15   AT NODE        614
   INSTANCE: CUBE-1                                                                          
 LARGEST INCREMENT OF VOL. LM.      1.195E-07   AT NODE          4
   INSTANCE: CUBE-1                                                                          
 LARGEST CORRECTION TO VOL. LM.    -4.385E-12   AT NODE         44
   INSTANCE: CUBE-1                                                                          
          THERE IS ZERO PR. FLUX  EVERYWHERE
 

 ***WARNING: THERE IS ZERO PR. FLUX EVERYWHERE IN THE MODEL BASED ON THE 
             DEFAULT CRITERION. PLEASE CHECK THE VALUE OF THE AVERAGE PR. FLUX 
             DURING THE CURRENT ITERATION TO VERIFY THAT THE PR. FLUX IS SMALL 
             ENOUGH TO BE TREATED AS ZERO. IF NOT, PLEASE USE THE SOLUTION 
             CONTROLS TO RESET THE CRITERION FOR ZERO PR. FLUX.
          TIME INCREMENT MAY NOW INCREASE TO    1.500E-04

 ITERATION SUMMARY FOR THE INCREMENT:   1 TOTAL ITERATIONS, OF WHICH
   0 ARE SEVERE DISCONTINUITY ITERATIONS AND  1 ARE EQUILIBRIUM ITERATIONS.

 TIME INCREMENT COMPLETED  1.000E-04,  FRACTION OF STEP COMPLETED  2.000E-04
 STEP TIME COMPLETED       2.000E-04,  TOTAL TIME COMPLETED        2.000E-04


  INCREMENT     3 STARTS. ATTEMPT NUMBER  1, TIME INCREMENT  1.500E-04
 
	REGULARIZED SYMMETRIC DIRECT SPARSE SOLVER RUNNING ON
 	1 HOST:        1 MPI RANK  x 1 THREAD
 	NUMBER OF EQUATIONS:     5820
 	NUMBER OF RHS:           1
 	NUMBER OF FLOPS:         5.704e+08

     CHECK POINT   START OF SOLVER    

     CHECK POINT  END OF SOLVER       

       ELAPSED USER TIME (SEC)      =  0.10000    
       ELAPSED SYSTEM TIME (SEC)    =   0.0000    
       ELAPSED TOTAL CPU TIME (SEC) =  0.10000    
       ELAPSED WALLCLOCK TIME (SEC) =          0

               CONVERGENCE CHECKS FOR EQUILIBRIUM ITERATION     1


 AVERAGE FORCE                      2.977E-06   TIME AVG. FORCE       1.730E-06
 LARGEST RESIDUAL FORCE            -2.313E-17   AT NODE        297   DOF  3
   INSTANCE: CUBE-1                                                                          
 LARGEST INCREMENT OF DISP.         1.491E-04   AT NODE        294   DOF  3
   INSTANCE: CUBE-1                                                                          
 LARGEST CORRECTION TO DISP.       -5.539E-09   AT NODE         64   DOF  3
   INSTANCE: CUBE-1                                                                          
          THE FORCE     EQUILIBRIUM RESPONSE WAS LINEAR IN THIS INCREMENT

 AVERAGE PR. FLUX                   1.020E-16   TIME AVG. PR. FLUX    1.000E-02
 LARGEST RESIDUAL PR. FLUX          5.922E-15   AT NODE        614
   INSTANCE: CUBE-1                                                                          
 LARGEST INCREMENT OF VOL. LM.      1.793E-07   AT NODE         87
   INSTANCE: CUBE-1                                                                          
 LARGEST CORRECTION TO VOL. LM.    -8.221E-12   AT NODE        364
   INSTANCE: CUBE-1                                                                          
          THERE IS ZERO PR. FLUX  EVERYWHERE
 

 ***WARNING: THERE IS ZERO PR. FLUX EVERYWHERE IN THE MODEL BASED ON THE 
             DEFAULT CRITERION. PLEASE CHECK THE VALUE OF THE AVERAGE PR. FLUX 
             DURING THE CURRENT ITERATION TO VERIFY THAT THE PR. FLUX IS SMALL 
             ENOUGH TO BE TREATED AS ZERO. IF NOT, PLEASE USE THE SOLUTION 
             CONTROLS TO RESET THE CRITERION FOR ZERO PR. FLUX.
          TIME INCREMENT MAY NOW INCREASE TO    2.250E-04

 ITERATION SUMMARY FOR THE INCREMENT:   1 TOTAL ITERATIONS, OF WHICH
   0 ARE SEVERE DISCONTINUITY ITERATIONS AND  1 ARE EQUILIBRIUM ITERATIONS.

 TIME INCREMENT COMPLETED  1.500E-04,  FRACTION OF STEP COMPLETED  3.500E-04
 STEP TIME COMPLETED       3.500E-04,  TOTAL TIME COMPLETED        3.500E-04


  INCREMENT     4 STARTS. ATTEMPT NUMBER  1, TIME INCREMENT  2.250E-04
 
	REGULARIZED SYMMETRIC DIRECT SPARSE SOLVER RUNNING ON
 	1 HOST:        1 MPI RANK  x 1 THREAD
 	NUMBER OF EQUATIONS:     5820
 	NUMBER OF RHS:           1
 	NUMBER OF FLOPS:         5.704e+08

     CHECK POINT   START OF SOLVER    

     CHECK POINT  END OF SOLVER       

       ELAPSED USER TIME (SEC)      =  0.10000    
       ELAPSED SYSTEM TIME (SEC)    =   0.0000    
       ELAPSED TOTAL CPU TIME (SEC) =  0.10000    
       ELAPSED WALLCLOCK TIME (SEC) =          0

               CONVERGENCE CHECKS FOR EQUILIBRIUM ITERATION     1


 AVERAGE FORCE                      4.890E-06   TIME AVG. FORCE       2.520E-06
 LARGEST RESIDUAL FORCE            -3.690E-17   AT NODE        336   DOF  3
   INSTANCE: CUBE-1                                                                          
 LARGEST INCREMENT OF DISP.         2.236E-04   AT NODE        294   DOF  3
   INSTANCE: CUBE-1                                                                          
 LARGEST CORRECTION TO DISP.       -1.246E-08   AT NODE        281   DOF  3
   INSTANCE: CUBE-1                                                                          
          THE FORCE     EQUILIBRIUM RESPONSE WAS LINEAR IN THIS INCREMENT

 AVERAGE PR. FLUX                   9.791E-24   TIME AVG. PR. FLUX    1.000E-02
 LARGEST RESIDUAL PR. FLUX         -1.349E-21   AT NODE       1306
   INSTANCE: CUBE-1                                                                          
 LARGEST INCREMENT OF VOL. LM.      2.689E-07   AT NODE        184
   INSTANCE: CUBE-1                                                                          
 LARGEST CORRECTION TO VOL. LM.    -1.849E-11   AT NODE        396
   INSTANCE: CUBE-1                                                                          
          THERE IS ZERO PR. FLUX  EVERYWHERE
 

 ***WARNING: THERE IS ZERO PR. FLUX EVERYWHERE IN THE MODEL BASED ON THE 
             DEFAULT CRITERION. PLEASE CHECK THE VALUE OF THE AVERAGE PR. FLUX 
             DURING THE CURRENT ITERATION TO VERIFY THAT THE PR. FLUX IS SMALL 
             ENOUGH TO BE TREATED AS ZERO. IF NOT, PLEASE USE THE SOLUTION 
             CONTROLS TO RESET THE CRITERION FOR ZERO PR. FLUX.
          TIME INCREMENT MAY NOW INCREASE TO    3.375E-04

 ITERATION SUMMARY FOR THE INCREMENT:   1 TOTAL ITERATIONS, OF WHICH
   0 ARE SEVERE DISCONTINUITY ITERATIONS AND  1 ARE EQUILIBRIUM ITERATIONS.

 TIME INCREMENT COMPLETED  2.250E-04,  FRACTION OF STEP COMPLETED  5.750E-04
 STEP TIME COMPLETED       5.750E-04,  TOTAL TIME COMPLETED        5.750E-04


  INCREMENT     5 STARTS. ATTEMPT NUMBER  1, TIME INCREMENT  3.375E-04
 
	REGULARIZED SYMMETRIC DIRECT SPARSE SOLVER RUNNING ON
 	1 HOST:        1 MPI RANK  x 1 THREAD
 	NUMBER OF EQUATIONS:     5820
 	NUMBER OF RHS:           1
 	NUMBER OF FLOPS:         5.704e+08

     CHECK POINT   START OF SOLVER    

     CHECK POINT  END OF SOLVER       

       ELAPSED USER TIME (SEC)      =  0.10000    
       ELAPSED SYSTEM TIME (SEC)    =   0.0000    
       ELAPSED TOTAL CPU TIME (SEC) =  0.10000    
       ELAPSED WALLCLOCK TIME (SEC) =          0

               CONVERGENCE CHECKS FOR EQUILIBRIUM ITERATION     1


 AVERAGE FORCE                      7.760E-06   TIME AVG. FORCE       3.568E-06
 LARGEST RESIDUAL FORCE            -4.594E-17   AT NODE        315   DOF  3
   INSTANCE: CUBE-1                                                                          
 LARGEST INCREMENT OF DISP.         3.354E-04   AT NODE         28   DOF  3
   INSTANCE: CUBE-1                                                                          
 LARGEST CORRECTION TO DISP.       -2.803E-08   AT NODE         31   DOF  3
   INSTANCE: CUBE-1                                                                          
          THE FORCE     EQUILIBRIUM RESPONSE WAS LINEAR IN THIS INCREMENT

 AVERAGE PR. FLUX                   6.859E-20   TIME AVG. PR. FLUX    1.000E-02
 LARGEST RESIDUAL PR. FLUX          4.664E-16   AT NODE        297
   INSTANCE: CUBE-1                                                                          
 LARGEST INCREMENT OF VOL. LM.      4.033E-07   AT NODE        297
   INSTANCE: CUBE-1                                                                          
 LARGEST CORRECTION TO VOL. LM.    -4.160E-11   AT NODE        315
   INSTANCE: CUBE-1                                                                          
          THERE IS ZERO PR. FLUX  EVERYWHERE
 

 ***WARNING: THERE IS ZERO PR. FLUX EVERYWHERE IN THE MODEL BASED ON THE 
             DEFAULT CRITERION. PLEASE CHECK THE VALUE OF THE AVERAGE PR. FLUX 
             DURING THE CURRENT ITERATION TO VERIFY THAT THE PR. FLUX IS SMALL 
             ENOUGH TO BE TREATED AS ZERO. IF NOT, PLEASE USE THE SOLUTION 
             CONTROLS TO RESET THE CRITERION FOR ZERO PR. FLUX.
          TIME INCREMENT MAY NOW INCREASE TO    5.062E-04

 ITERATION SUMMARY FOR THE INCREMENT:   1 TOTAL ITERATIONS, OF WHICH
   0 ARE SEVERE DISCONTINUITY ITERATIONS AND  1 ARE EQUILIBRIUM ITERATIONS.

 TIME INCREMENT COMPLETED  3.375E-04,  FRACTION OF STEP COMPLETED  9.125E-04
 STEP TIME COMPLETED       9.125E-04,  TOTAL TIME COMPLETED        9.125E-04


  INCREMENT     6 STARTS. ATTEMPT NUMBER  1, TIME INCREMENT  5.062E-04
 
	REGULARIZED SYMMETRIC DIRECT SPARSE SOLVER RUNNING ON
 	1 HOST:        1 MPI RANK  x 1 THREAD
 	NUMBER OF EQUATIONS:     5820
 	NUMBER OF RHS:           1
 	NUMBER OF FLOPS:         5.704e+08

     CHECK POINT   START OF SOLVER    

     CHECK POINT  END OF SOLVER       

       ELAPSED USER TIME (SEC)      =   0.0000    
       ELAPSED SYSTEM TIME (SEC)    =   0.0000    
       ELAPSED TOTAL CPU TIME (SEC) =   0.0000    
       ELAPSED WALLCLOCK TIME (SEC) =          1

               CONVERGENCE CHECKS FOR EQUILIBRIUM ITERATION     1


 AVERAGE FORCE                      1.206E-05   TIME AVG. FORCE       4.984E-06
 LARGEST RESIDUAL FORCE            -5.055E-17   AT NODE        315   DOF  3
   INSTANCE: CUBE-1                                                                          
 LARGEST INCREMENT OF DISP.         5.031E-04   AT NODE        306   DOF  3
   INSTANCE: CUBE-1                                                                          
 LARGEST CORRECTION TO DISP.       -6.307E-08   AT NODE         27   DOF  3
   INSTANCE: CUBE-1                                                                          
          THE FORCE     EQUILIBRIUM RESPONSE WAS LINEAR IN THIS INCREMENT

 AVERAGE PR. FLUX                   2.039E-16   TIME AVG. PR. FLUX    1.000E-02
 LARGEST RESIDUAL PR. FLUX          1.184E-14   AT NODE        614
   INSTANCE: CUBE-1                                                                          
 LARGEST INCREMENT OF VOL. LM.      6.048E-07   AT NODE         28
   INSTANCE: CUBE-1                                                                          
 LARGEST CORRECTION TO VOL. LM.    -9.357E-11   AT NODE       1411
   INSTANCE: CUBE-1                                                                          
          THERE IS ZERO PR. FLUX  EVERYWHERE
 

 ***WARNING: THERE IS ZERO PR. FLUX EVERYWHERE IN THE MODEL BASED ON THE 
             DEFAULT CRITERION. PLEASE CHECK THE VALUE OF THE AVERAGE PR. FLUX 
             DURING THE CURRENT ITERATION TO VERIFY THAT THE PR. FLUX IS SMALL 
             ENOUGH TO BE TREATED AS ZERO. IF NOT, PLEASE USE THE SOLUTION 
             CONTROLS TO RESET THE CRITERION FOR ZERO PR. FLUX.
          TIME INCREMENT MAY NOW INCREASE TO    7.594E-04

 ITERATION SUMMARY FOR THE INCREMENT:   1 TOTAL ITERATIONS, OF WHICH
   0 ARE SEVERE DISCONTINUITY ITERATIONS AND  1 ARE EQUILIBRIUM ITERATIONS.

 TIME INCREMENT COMPLETED  5.062E-04,  FRACTION OF STEP COMPLETED  1.419E-03
 STEP TIME COMPLETED       1.419E-03,  TOTAL TIME COMPLETED        1.419E-03


  INCREMENT     7 STARTS. ATTEMPT NUMBER  1, TIME INCREMENT  7.594E-04
 
	REGULARIZED SYMMETRIC DIRECT SPARSE SOLVER RUNNING ON
 	1 HOST:        1 MPI RANK  x 1 THREAD
 	NUMBER OF EQUATIONS:     5820
 	NUMBER OF RHS:           1
 	NUMBER OF FLOPS:         5.704e+08

     CHECK POINT   START OF SOLVER    

     CHECK POINT  END OF SOLVER       

       ELAPSED USER TIME (SEC)      =  0.10000    
       ELAPSED SYSTEM TIME (SEC)    =   0.0000    
       ELAPSED TOTAL CPU TIME (SEC) =  0.10000    
       ELAPSED WALLCLOCK TIME (SEC) =          0

               CONVERGENCE CHECKS FOR EQUILIBRIUM ITERATION     1


 AVERAGE FORCE                      1.852E-05   TIME AVG. FORCE       6.917E-06
 LARGEST RESIDUAL FORCE            -2.134E-16   AT NODE        289   DOF  3
   INSTANCE: CUBE-1                                                                          
 LARGEST INCREMENT OF DISP.         7.544E-04   AT NODE        327   DOF  3
   INSTANCE: CUBE-1                                                                          
 LARGEST CORRECTION TO DISP.       -1.419E-07   AT NODE        306   DOF  3
   INSTANCE: CUBE-1                                                                          
          THE FORCE     EQUILIBRIUM RESPONSE WAS LINEAR IN THIS INCREMENT

 AVERAGE PR. FLUX                   1.060E-16   TIME AVG. PR. FLUX    1.000E-02
 LARGEST RESIDUAL PR. FLUX          6.503E-15   AT NODE        749
   INSTANCE: CUBE-1                                                                          
 LARGEST INCREMENT OF VOL. LM.      9.070E-07   AT NODE        188
   INSTANCE: CUBE-1                                                                          
 LARGEST CORRECTION TO VOL. LM.    -2.104E-10   AT NODE         28
   INSTANCE: CUBE-1                                                                          
          THERE IS ZERO PR. FLUX  EVERYWHERE
 

 ***WARNING: THERE IS ZERO PR. FLUX EVERYWHERE IN THE MODEL BASED ON THE 
             DEFAULT CRITERION. PLEASE CHECK THE VALUE OF THE AVERAGE PR. FLUX 
             DURING THE CURRENT ITERATION TO VERIFY THAT THE PR. FLUX IS SMALL 
             ENOUGH TO BE TREATED AS ZERO. IF NOT, PLEASE USE THE SOLUTION 
             CONTROLS TO RESET THE CRITERION FOR ZERO PR. FLUX.
          TIME INCREMENT MAY NOW INCREASE TO    1.139E-03

 ITERATION SUMMARY FOR THE INCREMENT:   1 TOTAL ITERATIONS, OF WHICH
   0 ARE SEVERE DISCONTINUITY ITERATIONS AND  1 ARE EQUILIBRIUM ITERATIONS.

 TIME INCREMENT COMPLETED  7.594E-04,  FRACTION OF STEP COMPLETED  2.178E-03
 STEP TIME COMPLETED       2.178E-03,  TOTAL TIME COMPLETED        2.178E-03


  INCREMENT     8 STARTS. ATTEMPT NUMBER  1, TIME INCREMENT  1.139E-03
 
	REGULARIZED SYMMETRIC DIRECT SPARSE SOLVER RUNNING ON
 	1 HOST:        1 MPI RANK  x 1 THREAD
 	NUMBER OF EQUATIONS:     5820
 	NUMBER OF RHS:           1
 	NUMBER OF FLOPS:         5.704e+08

     CHECK POINT   START OF SOLVER    

     CHECK POINT  END OF SOLVER       

       ELAPSED USER TIME (SEC)      =   0.0000    
       ELAPSED SYSTEM TIME (SEC)    =   0.0000    
       ELAPSED TOTAL CPU TIME (SEC) =   0.0000    
       ELAPSED WALLCLOCK TIME (SEC) =          0

               CONVERGENCE CHECKS FOR EQUILIBRIUM ITERATION     1


 AVERAGE FORCE                      2.819E-05   TIME AVG. FORCE       9.577E-06
 LARGEST RESIDUAL FORCE             9.287E-16   AT NODE        509   DOF  3
   INSTANCE: CUBE-1                                                                          
 LARGEST INCREMENT OF DISP.         1.131E-03   AT NODE         80   DOF  3
   INSTANCE: CUBE-1                                                                          
 LARGEST CORRECTION TO DISP.       -3.191E-07   AT NODE        327   DOF  3
   INSTANCE: CUBE-1                                                                          
          THE FORCE     EQUILIBRIUM RESPONSE WAS LINEAR IN THIS INCREMENT

 AVERAGE PR. FLUX                   1.146E-16   TIME AVG. PR. FLUX    1.000E-02
 LARGEST RESIDUAL PR. FLUX          6.142E-15   AT NODE       1052
   INSTANCE: CUBE-1                                                                          
 LARGEST INCREMENT OF VOL. LM.      1.360E-06   AT NODE       1417
   INSTANCE: CUBE-1                                                                          
 LARGEST CORRECTION TO VOL. LM.    -4.730E-10   AT NODE       1376
   INSTANCE: CUBE-1                                                                          
          THERE IS ZERO PR. FLUX  EVERYWHERE
 

 ***WARNING: THERE IS ZERO PR. FLUX EVERYWHERE IN THE MODEL BASED ON THE 
             DEFAULT CRITERION. PLEASE CHECK THE VALUE OF THE AVERAGE PR. FLUX 
             DURING THE CURRENT ITERATION TO VERIFY THAT THE PR. FLUX IS SMALL 
             ENOUGH TO BE TREATED AS ZERO. IF NOT, PLEASE USE THE SOLUTION 
             CONTROLS TO RESET THE CRITERION FOR ZERO PR. FLUX.
          TIME INCREMENT MAY NOW INCREASE TO    1.709E-03

 ITERATION SUMMARY FOR THE INCREMENT:   1 TOTAL ITERATIONS, OF WHICH
   0 ARE SEVERE DISCONTINUITY ITERATIONS AND  1 ARE EQUILIBRIUM ITERATIONS.

 TIME INCREMENT COMPLETED  1.139E-03,  FRACTION OF STEP COMPLETED  3.317E-03
 STEP TIME COMPLETED       3.317E-03,  TOTAL TIME COMPLETED        3.317E-03


  INCREMENT     9 STARTS. ATTEMPT NUMBER  1, TIME INCREMENT  1.709E-03
 
	REGULARIZED SYMMETRIC DIRECT SPARSE SOLVER RUNNING ON
 	1 HOST:        1 MPI RANK  x 1 THREAD
 	NUMBER OF EQUATIONS:     5820
 	NUMBER OF RHS:           1
 	NUMBER OF FLOPS:         5.704e+08

     CHECK POINT   START OF SOLVER    

     CHECK POINT  END OF SOLVER       

       ELAPSED USER TIME (SEC)      =  0.10000    
       ELAPSED SYSTEM TIME (SEC)    =  0.10000    
       ELAPSED TOTAL CPU TIME (SEC) =  0.20000    
       ELAPSED WALLCLOCK TIME (SEC) =          0

               CONVERGENCE CHECKS FOR EQUILIBRIUM ITERATION     1


 AVERAGE FORCE                      4.269E-05   TIME AVG. FORCE       1.326E-05
 LARGEST RESIDUAL FORCE            -4.409E-15   AT NODE        284   DOF  3
   INSTANCE: CUBE-1                                                                          
 LARGEST INCREMENT OF DISP.         1.696E-03   AT NODE         71   DOF  3
   INSTANCE: CUBE-1                                                                          
 LARGEST CORRECTION TO DISP.       -7.177E-07   AT NODE          7   DOF  3
   INSTANCE: CUBE-1                                                                          
          THE FORCE     EQUILIBRIUM RESPONSE WAS LINEAR IN THIS INCREMENT

 AVERAGE PR. FLUX                   1.088E-16   TIME AVG. PR. FLUX    1.000E-02
 LARGEST RESIDUAL PR. FLUX         -7.439E-15   AT NODE       1044
   INSTANCE: CUBE-1                                                                          
 LARGEST INCREMENT OF VOL. LM.      2.039E-06   AT NODE       1316
   INSTANCE: CUBE-1                                                                          
 LARGEST CORRECTION TO VOL. LM.    -1.063E-09   AT NODE         28
   INSTANCE: CUBE-1                                                                          
          THERE IS ZERO PR. FLUX  EVERYWHERE
 

 ***WARNING: THERE IS ZERO PR. FLUX EVERYWHERE IN THE MODEL BASED ON THE 
             DEFAULT CRITERION. PLEASE CHECK THE VALUE OF THE AVERAGE PR. FLUX 
             DURING THE CURRENT ITERATION TO VERIFY THAT THE PR. FLUX IS SMALL 
             ENOUGH TO BE TREATED AS ZERO. IF NOT, PLEASE USE THE SOLUTION 
             CONTROLS TO RESET THE CRITERION FOR ZERO PR. FLUX.
          TIME INCREMENT MAY NOW INCREASE TO    2.563E-03

 ITERATION SUMMARY FOR THE INCREMENT:   1 TOTAL ITERATIONS, OF WHICH
   0 ARE SEVERE DISCONTINUITY ITERATIONS AND  1 ARE EQUILIBRIUM ITERATIONS.

 TIME INCREMENT COMPLETED  1.709E-03,  FRACTION OF STEP COMPLETED  5.026E-03
 STEP TIME COMPLETED       5.026E-03,  TOTAL TIME COMPLETED        5.026E-03


  INCREMENT    10 STARTS. ATTEMPT NUMBER  1, TIME INCREMENT  2.563E-03
 
	REGULARIZED SYMMETRIC DIRECT SPARSE SOLVER RUNNING ON
 	1 HOST:        1 MPI RANK  x 1 THREAD
 	NUMBER OF EQUATIONS:     5820
 	NUMBER OF RHS:           1
 	NUMBER OF FLOPS:         5.704e+08

     CHECK POINT   START OF SOLVER    

     CHECK POINT  END OF SOLVER       

       ELAPSED USER TIME (SEC)      =  0.10000    
       ELAPSED SYSTEM TIME (SEC)    =   0.0000    
       ELAPSED TOTAL CPU TIME (SEC) =  0.10000    
       ELAPSED WALLCLOCK TIME (SEC) =          0

               CONVERGENCE CHECKS FOR EQUILIBRIUM ITERATION     1


 AVERAGE FORCE                      6.442E-05   TIME AVG. FORCE       1.837E-05
 LARGEST RESIDUAL FORCE             2.216E-14   AT NODE        498   DOF  3
   INSTANCE: CUBE-1                                                                          
 LARGEST INCREMENT OF DISP.         2.543E-03   AT NODE         82   DOF  3
   INSTANCE: CUBE-1                                                                          
 LARGEST CORRECTION TO DISP.       -1.614E-06   AT NODE         71   DOF  3
   INSTANCE: CUBE-1                                                                          
          THE FORCE     EQUILIBRIUM RESPONSE WAS LINEAR IN THIS INCREMENT

 AVERAGE PR. FLUX                   1.177E-16   TIME AVG. PR. FLUX    1.000E-02
 LARGEST RESIDUAL PR. FLUX         -6.564E-15   AT NODE        614
   INSTANCE: CUBE-1                                                                          
 LARGEST INCREMENT OF VOL. LM.      3.056E-06   AT NODE        432
   INSTANCE: CUBE-1                                                                          
 LARGEST CORRECTION TO VOL. LM.    -2.387E-09   AT NODE        592
   INSTANCE: CUBE-1                                                                          
          THERE IS ZERO PR. FLUX  EVERYWHERE
 

 ***WARNING: THERE IS ZERO PR. FLUX EVERYWHERE IN THE MODEL BASED ON THE 
             DEFAULT CRITERION. PLEASE CHECK THE VALUE OF THE AVERAGE PR. FLUX 
             DURING THE CURRENT ITERATION TO VERIFY THAT THE PR. FLUX IS SMALL 
             ENOUGH TO BE TREATED AS ZERO. IF NOT, PLEASE USE THE SOLUTION 
             CONTROLS TO RESET THE CRITERION FOR ZERO PR. FLUX.
          TIME INCREMENT MAY NOW INCREASE TO    3.844E-03

 ITERATION SUMMARY FOR THE INCREMENT:   1 TOTAL ITERATIONS, OF WHICH
   0 ARE SEVERE DISCONTINUITY ITERATIONS AND  1 ARE EQUILIBRIUM ITERATIONS.

 TIME INCREMENT COMPLETED  2.563E-03,  FRACTION OF STEP COMPLETED  7.589E-03
 STEP TIME COMPLETED       7.589E-03,  TOTAL TIME COMPLETED        7.589E-03


  INCREMENT    11 STARTS. ATTEMPT NUMBER  1, TIME INCREMENT  3.844E-03
 
	REGULARIZED SYMMETRIC DIRECT SPARSE SOLVER RUNNING ON
 	1 HOST:        1 MPI RANK  x 1 THREAD
 	NUMBER OF EQUATIONS:     5820
 	NUMBER OF RHS:           1
 	NUMBER OF FLOPS:         5.704e+08

     CHECK POINT   START OF SOLVER    

     CHECK POINT  END OF SOLVER       

       ELAPSED USER TIME (SEC)      =   0.0000    
       ELAPSED SYSTEM TIME (SEC)    =  0.10000    
       ELAPSED TOTAL CPU TIME (SEC) =  0.10000    
       ELAPSED WALLCLOCK TIME (SEC) =          1

               CONVERGENCE CHECKS FOR EQUILIBRIUM ITERATION     1


 AVERAGE FORCE                      9.694E-05   TIME AVG. FORCE       2.551E-05
 LARGEST RESIDUAL FORCE             1.123E-13   AT NODE        475   DOF  3
   INSTANCE: CUBE-1                                                                          
 LARGEST INCREMENT OF DISP.         3.811E-03   AT NODE        310   DOF  3
   INSTANCE: CUBE-1                                                                          
 LARGEST CORRECTION TO DISP.       -3.627E-06   AT NODE         82   DOF  3
   INSTANCE: CUBE-1                                                                          
          THE FORCE     EQUILIBRIUM RESPONSE WAS LINEAR IN THIS INCREMENT

 AVERAGE PR. FLUX                   1.150E-16   TIME AVG. PR. FLUX    1.000E-02
 LARGEST RESIDUAL PR. FLUX         -8.413E-15   AT NODE        672
   INSTANCE: CUBE-1                                                                          
 LARGEST INCREMENT OF VOL. LM.      4.579E-06   AT NODE        531
   INSTANCE: CUBE-1                                                                          
 LARGEST CORRECTION TO VOL. LM.    -5.357E-09   AT NODE        432
   INSTANCE: CUBE-1                                                                          
          THERE IS ZERO PR. FLUX  EVERYWHERE
 

 ***WARNING: THERE IS ZERO PR. FLUX EVERYWHERE IN THE MODEL BASED ON THE 
             DEFAULT CRITERION. PLEASE CHECK THE VALUE OF THE AVERAGE PR. FLUX 
             DURING THE CURRENT ITERATION TO VERIFY THAT THE PR. FLUX IS SMALL 
             ENOUGH TO BE TREATED AS ZERO. IF NOT, PLEASE USE THE SOLUTION 
             CONTROLS TO RESET THE CRITERION FOR ZERO PR. FLUX.
          TIME INCREMENT MAY NOW INCREASE TO    5.767E-03

 ITERATION SUMMARY FOR THE INCREMENT:   1 TOTAL ITERATIONS, OF WHICH
   0 ARE SEVERE DISCONTINUITY ITERATIONS AND  1 ARE EQUILIBRIUM ITERATIONS.

 TIME INCREMENT COMPLETED  3.844E-03,  FRACTION OF STEP COMPLETED  1.143E-02
 STEP TIME COMPLETED       1.143E-02,  TOTAL TIME COMPLETED        1.143E-02


  INCREMENT    12 STARTS. ATTEMPT NUMBER  1, TIME INCREMENT  5.767E-03
 
	REGULARIZED SYMMETRIC DIRECT SPARSE SOLVER RUNNING ON
 	1 HOST:        1 MPI RANK  x 1 THREAD
 	NUMBER OF EQUATIONS:     5820
 	NUMBER OF RHS:           1
 	NUMBER OF FLOPS:         5.704e+08

     CHECK POINT   START OF SOLVER    

     CHECK POINT  END OF SOLVER       

       ELAPSED USER TIME (SEC)      =  0.10000    
       ELAPSED SYSTEM TIME (SEC)    =   0.0000    
       ELAPSED TOTAL CPU TIME (SEC) =  0.10000    
       ELAPSED WALLCLOCK TIME (SEC) =          0

               CONVERGENCE CHECKS FOR EQUILIBRIUM ITERATION     1


 AVERAGE FORCE                      1.456E-04   TIME AVG. FORCE       3.552E-05
 LARGEST RESIDUAL FORCE             5.698E-13   AT NODE        497   DOF  3
   INSTANCE: CUBE-1                                                                          
 LARGEST INCREMENT OF DISP.         5.708E-03   AT NODE        338   DOF  3
   INSTANCE: CUBE-1                                                                          
 LARGEST CORRECTION TO DISP.       -8.148E-06   AT NODE        310   DOF  3
   INSTANCE: CUBE-1                                                                          
          THE FORCE     EQUILIBRIUM EQUATIONS HAVE CONVERGED

 AVERAGE PR. FLUX                   1.179E-16   TIME AVG. PR. FLUX    1.000E-02
 LARGEST RESIDUAL PR. FLUX         -7.501E-15   AT NODE        890
   INSTANCE: CUBE-1                                                                          
 LARGEST INCREMENT OF VOL. LM.      6.856E-06   AT NODE        183
   INSTANCE: CUBE-1                                                                          
 LARGEST CORRECTION TO VOL. LM.    -1.200E-08   AT NODE        170
   INSTANCE: CUBE-1                                                                          
          THERE IS ZERO PR. FLUX  EVERYWHERE
 

 ***WARNING: THERE IS ZERO PR. FLUX EVERYWHERE IN THE MODEL BASED ON THE 
             DEFAULT CRITERION. PLEASE CHECK THE VALUE OF THE AVERAGE PR. FLUX 
             DURING THE CURRENT ITERATION TO VERIFY THAT THE PR. FLUX IS SMALL 
             ENOUGH TO BE TREATED AS ZERO. IF NOT, PLEASE USE THE SOLUTION 
             CONTROLS TO RESET THE CRITERION FOR ZERO PR. FLUX.
          TIME INCREMENT MAY NOW INCREASE TO    8.650E-03

 ITERATION SUMMARY FOR THE INCREMENT:   1 TOTAL ITERATIONS, OF WHICH
   0 ARE SEVERE DISCONTINUITY ITERATIONS AND  1 ARE EQUILIBRIUM ITERATIONS.

 TIME INCREMENT COMPLETED  5.767E-03,  FRACTION OF STEP COMPLETED  1.720E-02
 STEP TIME COMPLETED       1.720E-02,  TOTAL TIME COMPLETED        1.720E-02


  INCREMENT    13 STARTS. ATTEMPT NUMBER  1, TIME INCREMENT  8.650E-03
 
	REGULARIZED SYMMETRIC DIRECT SPARSE SOLVER RUNNING ON
 	1 HOST:        1 MPI RANK  x 1 THREAD
 	NUMBER OF EQUATIONS:     5820
 	NUMBER OF RHS:           1
 	NUMBER OF FLOPS:         5.704e+08

     CHECK POINT   START OF SOLVER    

     CHECK POINT  END OF SOLVER       

       ELAPSED USER TIME (SEC)      =   0.0000    
       ELAPSED SYSTEM TIME (SEC)    =   0.0000    
       ELAPSED TOTAL CPU TIME (SEC) =   0.0000    
       ELAPSED WALLCLOCK TIME (SEC) =          0

               CONVERGENCE CHECKS FOR EQUILIBRIUM ITERATION     1


 AVERAGE FORCE                      2.183E-04   TIME AVG. FORCE       4.958E-05
 LARGEST RESIDUAL FORCE            -2.894E-12   AT NODE        289   DOF  3
   INSTANCE: CUBE-1                                                                          
 LARGEST INCREMENT OF DISP.         8.543E-03   AT NODE          7   DOF  3
   INSTANCE: CUBE-1                                                                          
 LARGEST CORRECTION TO DISP.       -1.829E-05   AT NODE        338   DOF  3
   INSTANCE: CUBE-1                                                                          
          THE FORCE     EQUILIBRIUM EQUATIONS HAVE CONVERGED

 AVERAGE PR. FLUX                   1.746E-16   TIME AVG. PR. FLUX    1.000E-02
 LARGEST RESIDUAL PR. FLUX          1.328E-14   AT NODE        614
   INSTANCE: CUBE-1                                                                          
 LARGEST INCREMENT OF VOL. LM.      1.026E-05   AT NODE        204
   INSTANCE: CUBE-1                                                                          
 LARGEST CORRECTION TO VOL. LM.    -2.684E-08   AT NODE        407
   INSTANCE: CUBE-1                                                                          
          THERE IS ZERO PR. FLUX  EVERYWHERE
 

 ***WARNING: THERE IS ZERO PR. FLUX EVERYWHERE IN THE MODEL BASED ON THE 
             DEFAULT CRITERION. PLEASE CHECK THE VALUE OF THE AVERAGE PR. FLUX 
             DURING THE CURRENT ITERATION TO VERIFY THAT THE PR. FLUX IS SMALL 
             ENOUGH TO BE TREATED AS ZERO. IF NOT, PLEASE USE THE SOLUTION 
             CONTROLS TO RESET THE CRITERION FOR ZERO PR. FLUX.
          TIME INCREMENT MAY NOW INCREASE TO    1.000E-02

 ITERATION SUMMARY FOR THE INCREMENT:   1 TOTAL ITERATIONS, OF WHICH
   0 ARE SEVERE DISCONTINUITY ITERATIONS AND  1 ARE EQUILIBRIUM ITERATIONS.

 TIME INCREMENT COMPLETED  8.650E-03,  FRACTION OF STEP COMPLETED  2.585E-02
 STEP TIME COMPLETED       2.585E-02,  TOTAL TIME COMPLETED        2.585E-02


  INCREMENT    14 STARTS. ATTEMPT NUMBER  1, TIME INCREMENT  1.000E-02
 
	REGULARIZED SYMMETRIC DIRECT SPARSE SOLVER RUNNING ON
 	1 HOST:        1 MPI RANK  x 1 THREAD
 	NUMBER OF EQUATIONS:     5820
 	NUMBER OF RHS:           1
 	NUMBER OF FLOPS:         5.704e+08

     CHECK POINT   START OF SOLVER    

     CHECK POINT  END OF SOLVER       

       ELAPSED USER TIME (SEC)      =  0.10000    
       ELAPSED SYSTEM TIME (SEC)    =  0.10000    
       ELAPSED TOTAL CPU TIME (SEC) =  0.20000    
       ELAPSED WALLCLOCK TIME (SEC) =          0

               CONVERGENCE CHECKS FOR EQUILIBRIUM ITERATION     1


 AVERAGE FORCE                      3.019E-04   TIME AVG. FORCE       6.760E-05
 LARGEST RESIDUAL FORCE            -6.493E-12   AT NODE        301   DOF  3
   INSTANCE: CUBE-1                                                                          
 LARGEST INCREMENT OF DISP.         9.850E-03   AT NODE         73   DOF  3
   INSTANCE: CUBE-1                                                                          
 LARGEST CORRECTION TO DISP.       -2.727E-05   AT NODE         32   DOF  3
   INSTANCE: CUBE-1                                                                          
          THE FORCE     EQUILIBRIUM EQUATIONS HAVE CONVERGED

 AVERAGE PR. FLUX                   3.918E-17   TIME AVG. PR. FLUX    1.000E-02
 LARGEST RESIDUAL PR. FLUX         -3.074E-15   AT NODE        697
   INSTANCE: CUBE-1                                                                          
 LARGEST INCREMENT OF VOL. LM.      1.182E-05   AT NODE         51
   INSTANCE: CUBE-1                                                                          
 LARGEST CORRECTION TO VOL. LM.    -3.980E-08   AT NODE        204
   INSTANCE: CUBE-1                                                                          
          THERE IS ZERO PR. FLUX  EVERYWHERE
 

 ***WARNING: THERE IS ZERO PR. FLUX EVERYWHERE IN THE MODEL BASED ON THE 
             DEFAULT CRITERION. PLEASE CHECK THE VALUE OF THE AVERAGE PR. FLUX 
             DURING THE CURRENT ITERATION TO VERIFY THAT THE PR. FLUX IS SMALL 
             ENOUGH TO BE TREATED AS ZERO. IF NOT, PLEASE USE THE SOLUTION 
             CONTROLS TO RESET THE CRITERION FOR ZERO PR. FLUX.

 ITERATION SUMMARY FOR THE INCREMENT:   1 TOTAL ITERATIONS, OF WHICH
   0 ARE SEVERE DISCONTINUITY ITERATIONS AND  1 ARE EQUILIBRIUM ITERATIONS.

 TIME INCREMENT COMPLETED  1.000E-02,  FRACTION OF STEP COMPLETED  3.585E-02
 STEP TIME COMPLETED       3.585E-02,  TOTAL TIME COMPLETED        3.585E-02


  INCREMENT    15 STARTS. ATTEMPT NUMBER  1, TIME INCREMENT  1.000E-02
 
	REGULARIZED SYMMETRIC DIRECT SPARSE SOLVER RUNNING ON
 	1 HOST:        1 MPI RANK  x 1 THREAD
 	NUMBER OF EQUATIONS:     5820
 	NUMBER OF RHS:           1
 	NUMBER OF FLOPS:         5.704e+08

     CHECK POINT   START OF SOLVER    

     CHECK POINT  END OF SOLVER       

       ELAPSED USER TIME (SEC)      =  0.10000    
       ELAPSED SYSTEM TIME (SEC)    =   0.0000    
       ELAPSED TOTAL CPU TIME (SEC) =  0.10000    
       ELAPSED WALLCLOCK TIME (SEC) =          0

               CONVERGENCE CHECKS FOR EQUILIBRIUM ITERATION     1


 AVERAGE FORCE                      3.850E-04   TIME AVG. FORCE       8.876E-05
 LARGEST RESIDUAL FORCE            -7.481E-12   AT NODE        351   DOF  3
   INSTANCE: CUBE-1                                                                          
 LARGEST INCREMENT OF DISP.         9.821E-03   AT NODE        337   DOF  3
   INSTANCE: CUBE-1                                                                          
 LARGEST CORRECTION TO DISP.       -2.913E-05   AT NODE         73   DOF  3
   INSTANCE: CUBE-1                                                                          
          THE FORCE     EQUILIBRIUM EQUATIONS HAVE CONVERGED

 AVERAGE PR. FLUX                   2.103E-16   TIME AVG. PR. FLUX    1.000E-02
 LARGEST RESIDUAL PR. FLUX          1.471E-14   AT NODE        750
   INSTANCE: CUBE-1                                                                          
 LARGEST INCREMENT OF VOL. LM.      1.178E-05   AT NODE        395
   INSTANCE: CUBE-1                                                                          
 LARGEST CORRECTION TO VOL. LM.    -4.227E-08   AT NODE        419
   INSTANCE: CUBE-1                                                                          
          THERE IS ZERO PR. FLUX  EVERYWHERE
 

 ***WARNING: THERE IS ZERO PR. FLUX EVERYWHERE IN THE MODEL BASED ON THE 
             DEFAULT CRITERION. PLEASE CHECK THE VALUE OF THE AVERAGE PR. FLUX 
             DURING THE CURRENT ITERATION TO VERIFY THAT THE PR. FLUX IS SMALL 
             ENOUGH TO BE TREATED AS ZERO. IF NOT, PLEASE USE THE SOLUTION 
             CONTROLS TO RESET THE CRITERION FOR ZERO PR. FLUX.

 ITERATION SUMMARY FOR THE INCREMENT:   1 TOTAL ITERATIONS, OF WHICH
   0 ARE SEVERE DISCONTINUITY ITERATIONS AND  1 ARE EQUILIBRIUM ITERATIONS.

 TIME INCREMENT COMPLETED  1.000E-02,  FRACTION OF STEP COMPLETED  4.585E-02
 STEP TIME COMPLETED       4.585E-02,  TOTAL TIME COMPLETED        4.585E-02


  INCREMENT    16 STARTS. ATTEMPT NUMBER  1, TIME INCREMENT  1.000E-02
 
	REGULARIZED SYMMETRIC DIRECT SPARSE SOLVER RUNNING ON
 	1 HOST:        1 MPI RANK  x 1 THREAD
 	NUMBER OF EQUATIONS:     5820
 	NUMBER OF RHS:           1
 	NUMBER OF FLOPS:         5.704e+08

     CHECK POINT   START OF SOLVER    

     CHECK POINT  END OF SOLVER       

       ELAPSED USER TIME (SEC)      =  0.10000    
       ELAPSED SYSTEM TIME (SEC)    =   0.0000    
       ELAPSED TOTAL CPU TIME (SEC) =  0.10000    
       ELAPSED WALLCLOCK TIME (SEC) =          0

               CONVERGENCE CHECKS FOR EQUILIBRIUM ITERATION     1


 AVERAGE FORCE                      4.677E-04   TIME AVG. FORCE       1.124E-04
 LARGEST RESIDUAL FORCE             7.493E-12   AT NODE        442   DOF  3
   INSTANCE: CUBE-1                                                                          
 LARGEST INCREMENT OF DISP.         9.792E-03   AT NODE         80   DOF  3
   INSTANCE: CUBE-1                                                                          
 LARGEST CORRECTION TO DISP.       -2.902E-05   AT NODE        337   DOF  3
   INSTANCE: CUBE-1                                                                          
          THE FORCE     EQUILIBRIUM EQUATIONS HAVE CONVERGED

 AVERAGE PR. FLUX                   1.963E-16   TIME AVG. PR. FLUX    1.000E-02
 LARGEST RESIDUAL PR. FLUX         -1.095E-14   AT NODE        616
   INSTANCE: CUBE-1                                                                          
 LARGEST INCREMENT OF VOL. LM.      1.173E-05   AT NODE        594
   INSTANCE: CUBE-1                                                                          
 LARGEST CORRECTION TO VOL. LM.    -4.184E-08   AT NODE        428
   INSTANCE: CUBE-1                                                                          
          THERE IS ZERO PR. FLUX  EVERYWHERE
 

 ***WARNING: THERE IS ZERO PR. FLUX EVERYWHERE IN THE MODEL BASED ON THE 
             DEFAULT CRITERION. PLEASE CHECK THE VALUE OF THE AVERAGE PR. FLUX 
             DURING THE CURRENT ITERATION TO VERIFY THAT THE PR. FLUX IS SMALL 
             ENOUGH TO BE TREATED AS ZERO. IF NOT, PLEASE USE THE SOLUTION 
             CONTROLS TO RESET THE CRITERION FOR ZERO PR. FLUX.

 ITERATION SUMMARY FOR THE INCREMENT:   1 TOTAL ITERATIONS, OF WHICH
   0 ARE SEVERE DISCONTINUITY ITERATIONS AND  1 ARE EQUILIBRIUM ITERATIONS.

 TIME INCREMENT COMPLETED  1.000E-02,  FRACTION OF STEP COMPLETED  5.585E-02
 STEP TIME COMPLETED       5.585E-02,  TOTAL TIME COMPLETED        5.585E-02


  INCREMENT    17 STARTS. ATTEMPT NUMBER  1, TIME INCREMENT  1.000E-02
 
	REGULARIZED SYMMETRIC DIRECT SPARSE SOLVER RUNNING ON
 	1 HOST:        1 MPI RANK  x 1 THREAD
 	NUMBER OF EQUATIONS:     5820
 	NUMBER OF RHS:           1
 	NUMBER OF FLOPS:         5.704e+08

     CHECK POINT   START OF SOLVER    

     CHECK POINT  END OF SOLVER       

       ELAPSED USER TIME (SEC)      =  0.10000    
       ELAPSED SYSTEM TIME (SEC)    =   0.0000    
       ELAPSED TOTAL CPU TIME (SEC) =  0.10000    
       ELAPSED WALLCLOCK TIME (SEC) =          0

               CONVERGENCE CHECKS FOR EQUILIBRIUM ITERATION     1


 AVERAGE FORCE                      5.499E-04   TIME AVG. FORCE       1.382E-04
 LARGEST RESIDUAL FORCE             7.504E-12   AT NODE        469   DOF  3
   INSTANCE: CUBE-1                                                                          
 LARGEST INCREMENT OF DISP.         9.763E-03   AT NODE        284   DOF  3
   INSTANCE: CUBE-1                                                                          
 LARGEST CORRECTION TO DISP.       -2.891E-05   AT NODE         80   DOF  3
   INSTANCE: CUBE-1                                                                          
          THE FORCE     EQUILIBRIUM EQUATIONS HAVE CONVERGED

 AVERAGE PR. FLUX                   1.265E-16   TIME AVG. PR. FLUX    1.000E-02
 LARGEST RESIDUAL PR. FLUX          9.072E-15   AT NODE        610
   INSTANCE: CUBE-1                                                                          
 LARGEST INCREMENT OF VOL. LM.      1.169E-05   AT NODE         41
   INSTANCE: CUBE-1                                                                          
 LARGEST CORRECTION TO VOL. LM.    -4.141E-08   AT NODE         28
   INSTANCE: CUBE-1                                                                          
          THERE IS ZERO PR. FLUX  EVERYWHERE
 

 ***WARNING: THERE IS ZERO PR. FLUX EVERYWHERE IN THE MODEL BASED ON THE 
             DEFAULT CRITERION. PLEASE CHECK THE VALUE OF THE AVERAGE PR. FLUX 
             DURING THE CURRENT ITERATION TO VERIFY THAT THE PR. FLUX IS SMALL 
             ENOUGH TO BE TREATED AS ZERO. IF NOT, PLEASE USE THE SOLUTION 
             CONTROLS TO RESET THE CRITERION FOR ZERO PR. FLUX.

 ITERATION SUMMARY FOR THE INCREMENT:   1 TOTAL ITERATIONS, OF WHICH
   0 ARE SEVERE DISCONTINUITY ITERATIONS AND  1 ARE EQUILIBRIUM ITERATIONS.

 TIME INCREMENT COMPLETED  1.000E-02,  FRACTION OF STEP COMPLETED  6.585E-02
 STEP TIME COMPLETED       6.585E-02,  TOTAL TIME COMPLETED        6.585E-02


  INCREMENT    18 STARTS. ATTEMPT NUMBER  1, TIME INCREMENT  1.000E-02
 
	REGULARIZED SYMMETRIC DIRECT SPARSE SOLVER RUNNING ON
 	1 HOST:        1 MPI RANK  x 1 THREAD
 	NUMBER OF EQUATIONS:     5820
 	NUMBER OF RHS:           1
 	NUMBER OF FLOPS:         5.704e+08

     CHECK POINT   START OF SOLVER    

     CHECK POINT  END OF SOLVER       

       ELAPSED USER TIME (SEC)      =  0.10000    
       ELAPSED SYSTEM TIME (SEC)    =   0.0000    
       ELAPSED TOTAL CPU TIME (SEC) =  0.10000    
       ELAPSED WALLCLOCK TIME (SEC) =          0

               CONVERGENCE CHECKS FOR EQUILIBRIUM ITERATION     1


 AVERAGE FORCE                      6.317E-04   TIME AVG. FORCE       1.656E-04
 LARGEST RESIDUAL FORCE             7.515E-12   AT NODE        474   DOF  3
   INSTANCE: CUBE-1                                                                          
 LARGEST INCREMENT OF DISP.         9.734E-03   AT NODE         69   DOF  3
   INSTANCE: CUBE-1                                                                          
 LARGEST CORRECTION TO DISP.       -2.879E-05   AT NODE         66   DOF  3
   INSTANCE: CUBE-1                                                                          
          THE FORCE     EQUILIBRIUM EQUATIONS HAVE CONVERGED

 AVERAGE PR. FLUX                   2.075E-17   TIME AVG. PR. FLUX    1.000E-02
 LARGEST RESIDUAL PR. FLUX          3.881E-15   AT NODE        644
   INSTANCE: CUBE-1                                                                          
 LARGEST INCREMENT OF VOL. LM.      1.165E-05   AT NODE       1393
   INSTANCE: CUBE-1                                                                          
 LARGEST CORRECTION TO VOL. LM.    -4.099E-08   AT NODE        102
   INSTANCE: CUBE-1                                                                          
          THERE IS ZERO PR. FLUX  EVERYWHERE
 

 ***WARNING: THERE IS ZERO PR. FLUX EVERYWHERE IN THE MODEL BASED ON THE 
             DEFAULT CRITERION. PLEASE CHECK THE VALUE OF THE AVERAGE PR. FLUX 
             DURING THE CURRENT ITERATION TO VERIFY THAT THE PR. FLUX IS SMALL 
             ENOUGH TO BE TREATED AS ZERO. IF NOT, PLEASE USE THE SOLUTION 
             CONTROLS TO RESET THE CRITERION FOR ZERO PR. FLUX.

 ITERATION SUMMARY FOR THE INCREMENT:   1 TOTAL ITERATIONS, OF WHICH
   0 ARE SEVERE DISCONTINUITY ITERATIONS AND  1 ARE EQUILIBRIUM ITERATIONS.

 TIME INCREMENT COMPLETED  1.000E-02,  FRACTION OF STEP COMPLETED  7.585E-02
 STEP TIME COMPLETED       7.585E-02,  TOTAL TIME COMPLETED        7.585E-02


  INCREMENT    19 STARTS. ATTEMPT NUMBER  1, TIME INCREMENT  1.000E-02
 
	REGULARIZED SYMMETRIC DIRECT SPARSE SOLVER RUNNING ON
 	1 HOST:        1 MPI RANK  x 1 THREAD
 	NUMBER OF EQUATIONS:     5820
 	NUMBER OF RHS:           1
 	NUMBER OF FLOPS:         5.704e+08

     CHECK POINT   START OF SOLVER    

     CHECK POINT  END OF SOLVER       

       ELAPSED USER TIME (SEC)      =  0.10000    
       ELAPSED SYSTEM TIME (SEC)    =   0.0000    
       ELAPSED TOTAL CPU TIME (SEC) =  0.10000    
       ELAPSED WALLCLOCK TIME (SEC) =          1

               CONVERGENCE CHECKS FOR EQUILIBRIUM ITERATION     1


 AVERAGE FORCE                      7.131E-04   TIME AVG. FORCE       1.944E-04
 LARGEST RESIDUAL FORCE             7.526E-12   AT NODE        453   DOF  3
   INSTANCE: CUBE-1                                                                          
 LARGEST INCREMENT OF DISP.         9.705E-03   AT NODE        334   DOF  3
   INSTANCE: CUBE-1                                                                          
 LARGEST CORRECTION TO DISP.       -2.868E-05   AT NODE         70   DOF  3
   INSTANCE: CUBE-1                                                                          
          THE FORCE     EQUILIBRIUM EQUATIONS HAVE CONVERGED

 AVERAGE PR. FLUX                   1.831E-16   TIME AVG. PR. FLUX    1.000E-02
 LARGEST RESIDUAL PR. FLUX         -7.275E-15   AT NODE        603
   INSTANCE: CUBE-1                                                                          
 LARGEST INCREMENT OF VOL. LM.      1.161E-05   AT NODE        412
   INSTANCE: CUBE-1                                                                          
 LARGEST CORRECTION TO VOL. LM.    -4.057E-08   AT NODE       1393
   INSTANCE: CUBE-1                                                                          
          THERE IS ZERO PR. FLUX  EVERYWHERE
 

 ***WARNING: THERE IS ZERO PR. FLUX EVERYWHERE IN THE MODEL BASED ON THE 
             DEFAULT CRITERION. PLEASE CHECK THE VALUE OF THE AVERAGE PR. FLUX 
             DURING THE CURRENT ITERATION TO VERIFY THAT THE PR. FLUX IS SMALL 
             ENOUGH TO BE TREATED AS ZERO. IF NOT, PLEASE USE THE SOLUTION 
             CONTROLS TO RESET THE CRITERION FOR ZERO PR. FLUX.

 ITERATION SUMMARY FOR THE INCREMENT:   1 TOTAL ITERATIONS, OF WHICH
   0 ARE SEVERE DISCONTINUITY ITERATIONS AND  1 ARE EQUILIBRIUM ITERATIONS.

 TIME INCREMENT COMPLETED  1.000E-02,  FRACTION OF STEP COMPLETED  8.585E-02
 STEP TIME COMPLETED       8.585E-02,  TOTAL TIME COMPLETED        8.585E-02


  INCREMENT    20 STARTS. ATTEMPT NUMBER  1, TIME INCREMENT  1.000E-02
 
	REGULARIZED SYMMETRIC DIRECT SPARSE SOLVER RUNNING ON
 	1 HOST:        1 MPI RANK  x 1 THREAD
 	NUMBER OF EQUATIONS:     5820
 	NUMBER OF RHS:           1
 	NUMBER OF FLOPS:         5.704e+08

     CHECK POINT   START OF SOLVER    

     CHECK POINT  END OF SOLVER       

       ELAPSED USER TIME (SEC)      =  0.10000    
       ELAPSED SYSTEM TIME (SEC)    =   0.0000    
       ELAPSED TOTAL CPU TIME (SEC) =  0.10000    
       ELAPSED WALLCLOCK TIME (SEC) =          0

               CONVERGENCE CHECKS FOR EQUILIBRIUM ITERATION     1


 AVERAGE FORCE                      7.939E-04   TIME AVG. FORCE       2.244E-04
 LARGEST RESIDUAL FORCE            -7.538E-12   AT NODE        283   DOF  3
   INSTANCE: CUBE-1                                                                          
 LARGEST INCREMENT OF DISP.         9.677E-03   AT NODE        353   DOF  3
   INSTANCE: CUBE-1                                                                          
 LARGEST CORRECTION TO DISP.       -2.857E-05   AT NODE          6   DOF  3
   INSTANCE: CUBE-1                                                                          
          THE FORCE     EQUILIBRIUM EQUATIONS HAVE CONVERGED

 AVERAGE PR. FLUX                   2.172E-17   TIME AVG. PR. FLUX    1.000E-02
 LARGEST RESIDUAL PR. FLUX          3.756E-15   AT NODE        739
   INSTANCE: CUBE-1                                                                          
 LARGEST INCREMENT OF VOL. LM.      1.157E-05   AT NODE        153
   INSTANCE: CUBE-1                                                                          
 LARGEST CORRECTION TO VOL. LM.    -4.015E-08   AT NODE        884
   INSTANCE: CUBE-1                                                                          
          THERE IS ZERO PR. FLUX  EVERYWHERE
 

 ***WARNING: THERE IS ZERO PR. FLUX EVERYWHERE IN THE MODEL BASED ON THE 
             DEFAULT CRITERION. PLEASE CHECK THE VALUE OF THE AVERAGE PR. FLUX 
             DURING THE CURRENT ITERATION TO VERIFY THAT THE PR. FLUX IS SMALL 
             ENOUGH TO BE TREATED AS ZERO. IF NOT, PLEASE USE THE SOLUTION 
             CONTROLS TO RESET THE CRITERION FOR ZERO PR. FLUX.

 ITERATION SUMMARY FOR THE INCREMENT:   1 TOTAL ITERATIONS, OF WHICH
   0 ARE SEVERE DISCONTINUITY ITERATIONS AND  1 ARE EQUILIBRIUM ITERATIONS.

 TIME INCREMENT COMPLETED  1.000E-02,  FRACTION OF STEP COMPLETED  9.585E-02
 STEP TIME COMPLETED       9.585E-02,  TOTAL TIME COMPLETED        9.585E-02


  INCREMENT    21 STARTS. ATTEMPT NUMBER  1, TIME INCREMENT  1.000E-02
 
	REGULARIZED SYMMETRIC DIRECT SPARSE SOLVER RUNNING ON
 	1 HOST:        1 MPI RANK  x 1 THREAD
 	NUMBER OF EQUATIONS:     5820
 	NUMBER OF RHS:           1
 	NUMBER OF FLOPS:         5.704e+08

     CHECK POINT   START OF SOLVER    

     CHECK POINT  END OF SOLVER       

       ELAPSED USER TIME (SEC)      =  0.10000    
       ELAPSED SYSTEM TIME (SEC)    =   0.0000    
       ELAPSED TOTAL CPU TIME (SEC) =  0.10000    
       ELAPSED WALLCLOCK TIME (SEC) =          0

               CONVERGENCE CHECKS FOR EQUILIBRIUM ITERATION     1


 AVERAGE FORCE                      8.744E-04   TIME AVG. FORCE       2.553E-04
 LARGEST RESIDUAL FORCE            -7.549E-12   AT NODE        328   DOF  3
   INSTANCE: CUBE-1                                                                          
 LARGEST INCREMENT OF DISP.         9.648E-03   AT NODE          7   DOF  3
   INSTANCE: CUBE-1                                                                          
 LARGEST CORRECTION TO DISP.       -2.846E-05   AT NODE        353   DOF  3
   INSTANCE: CUBE-1                                                                          
          THE FORCE     EQUILIBRIUM EQUATIONS HAVE CONVERGED

 AVERAGE PR. FLUX                   1.365E-16   TIME AVG. PR. FLUX    1.000E-02
 LARGEST RESIDUAL PR. FLUX          9.401E-15   AT NODE        745
   INSTANCE: CUBE-1                                                                          
 LARGEST INCREMENT OF VOL. LM.      1.153E-05   AT NODE       1134
   INSTANCE: CUBE-1                                                                          
 LARGEST CORRECTION TO VOL. LM.    -3.974E-08   AT NODE         41
   INSTANCE: CUBE-1                                                                          
          THERE IS ZERO PR. FLUX  EVERYWHERE
 

 ***WARNING: THERE IS ZERO PR. FLUX EVERYWHERE IN THE MODEL BASED ON THE 
             DEFAULT CRITERION. PLEASE CHECK THE VALUE OF THE AVERAGE PR. FLUX 
             DURING THE CURRENT ITERATION TO VERIFY THAT THE PR. FLUX IS SMALL 
             ENOUGH TO BE TREATED AS ZERO. IF NOT, PLEASE USE THE SOLUTION 
             CONTROLS TO RESET THE CRITERION FOR ZERO PR. FLUX.

 ITERATION SUMMARY FOR THE INCREMENT:   1 TOTAL ITERATIONS, OF WHICH
   0 ARE SEVERE DISCONTINUITY ITERATIONS AND  1 ARE EQUILIBRIUM ITERATIONS.

 TIME INCREMENT COMPLETED  1.000E-02,  FRACTION OF STEP COMPLETED  0.106    
 STEP TIME COMPLETED       0.106    ,  TOTAL TIME COMPLETED        0.106    


  INCREMENT    22 STARTS. ATTEMPT NUMBER  1, TIME INCREMENT  1.000E-02
 
	REGULARIZED SYMMETRIC DIRECT SPARSE SOLVER RUNNING ON
 	1 HOST:        1 MPI RANK  x 1 THREAD
 	NUMBER OF EQUATIONS:     5820
 	NUMBER OF RHS:           1
 	NUMBER OF FLOPS:         5.704e+08

     CHECK POINT   START OF SOLVER    

     CHECK POINT  END OF SOLVER       

       ELAPSED USER TIME (SEC)      =  0.10000    
       ELAPSED SYSTEM TIME (SEC)    =   0.0000    
       ELAPSED TOTAL CPU TIME (SEC) =  0.10000    
       ELAPSED WALLCLOCK TIME (SEC) =          0

               CONVERGENCE CHECKS FOR EQUILIBRIUM ITERATION     1


 AVERAGE FORCE                      9.544E-04   TIME AVG. FORCE       2.871E-04
 LARGEST RESIDUAL FORCE             7.559E-12   AT NODE        455   DOF  3
   INSTANCE: CUBE-1                                                                          
 LARGEST INCREMENT OF DISP.         9.620E-03   AT NODE          3   DOF  3
   INSTANCE: CUBE-1                                                                          
 LARGEST CORRECTION TO DISP.       -2.835E-05   AT NODE          7   DOF  3
   INSTANCE: CUBE-1                                                                          
          THE FORCE     EQUILIBRIUM EQUATIONS HAVE CONVERGED

 AVERAGE PR. FLUX                   2.433E-17   TIME AVG. PR. FLUX    1.000E-02
 LARGEST RESIDUAL PR. FLUX         -2.189E-15   AT NODE       1243
   INSTANCE: CUBE-1                                                                          
 LARGEST INCREMENT OF VOL. LM.      1.149E-05   AT NODE        178
   INSTANCE: CUBE-1                                                                          
 LARGEST CORRECTION TO VOL. LM.    -3.934E-08   AT NODE        378
   INSTANCE: CUBE-1                                                                          
          THERE IS ZERO PR. FLUX  EVERYWHERE
 

 ***WARNING: THERE IS ZERO PR. FLUX EVERYWHERE IN THE MODEL BASED ON THE 
             DEFAULT CRITERION. PLEASE CHECK THE VALUE OF THE AVERAGE PR. FLUX 
             DURING THE CURRENT ITERATION TO VERIFY THAT THE PR. FLUX IS SMALL 
             ENOUGH TO BE TREATED AS ZERO. IF NOT, PLEASE USE THE SOLUTION 
             CONTROLS TO RESET THE CRITERION FOR ZERO PR. FLUX.

 ITERATION SUMMARY FOR THE INCREMENT:   1 TOTAL ITERATIONS, OF WHICH
   0 ARE SEVERE DISCONTINUITY ITERATIONS AND  1 ARE EQUILIBRIUM ITERATIONS.

 TIME INCREMENT COMPLETED  1.000E-02,  FRACTION OF STEP COMPLETED  0.116    
 STEP TIME COMPLETED       0.116    ,  TOTAL TIME COMPLETED        0.116    


  INCREMENT    23 STARTS. ATTEMPT NUMBER  1, TIME INCREMENT  1.000E-02
 
	REGULARIZED SYMMETRIC DIRECT SPARSE SOLVER RUNNING ON
 	1 HOST:        1 MPI RANK  x 1 THREAD
 	NUMBER OF EQUATIONS:     5820
 	NUMBER OF RHS:           1
 	NUMBER OF FLOPS:         5.704e+08

     CHECK POINT   START OF SOLVER    

     CHECK POINT  END OF SOLVER       

       ELAPSED USER TIME (SEC)      =  0.10000    
       ELAPSED SYSTEM TIME (SEC)    =   0.0000    
       ELAPSED TOTAL CPU TIME (SEC) =  0.10000    
       ELAPSED WALLCLOCK TIME (SEC) =          0

               CONVERGENCE CHECKS FOR EQUILIBRIUM ITERATION     1


 AVERAGE FORCE                      1.034E-03   TIME AVG. FORCE       3.196E-04
 LARGEST RESIDUAL FORCE             7.570E-12   AT NODE        453   DOF  3
   INSTANCE: CUBE-1                                                                          
 LARGEST INCREMENT OF DISP.         9.592E-03   AT NODE         81   DOF  3
   INSTANCE: CUBE-1                                                                          
 LARGEST CORRECTION TO DISP.       -2.824E-05   AT NODE          3   DOF  3
   INSTANCE: CUBE-1                                                                          
          THE FORCE     EQUILIBRIUM EQUATIONS HAVE CONVERGED

 AVERAGE PR. FLUX                   1.662E-16   TIME AVG. PR. FLUX    1.000E-02
 LARGEST RESIDUAL PR. FLUX         -8.600E-15   AT NODE        604
   INSTANCE: CUBE-1                                                                          
 LARGEST INCREMENT OF VOL. LM.      1.145E-05   AT NODE        428
   INSTANCE: CUBE-1                                                                          
 LARGEST CORRECTION TO VOL. LM.    -3.894E-08   AT NODE        104
   INSTANCE: CUBE-1                                                                          
          THERE IS ZERO PR. FLUX  EVERYWHERE
 

 ***WARNING: THERE IS ZERO PR. FLUX EVERYWHERE IN THE MODEL BASED ON THE 
             DEFAULT CRITERION. PLEASE CHECK THE VALUE OF THE AVERAGE PR. FLUX 
             DURING THE CURRENT ITERATION TO VERIFY THAT THE PR. FLUX IS SMALL 
             ENOUGH TO BE TREATED AS ZERO. IF NOT, PLEASE USE THE SOLUTION 
             CONTROLS TO RESET THE CRITERION FOR ZERO PR. FLUX.

 ITERATION SUMMARY FOR THE INCREMENT:   1 TOTAL ITERATIONS, OF WHICH
   0 ARE SEVERE DISCONTINUITY ITERATIONS AND  1 ARE EQUILIBRIUM ITERATIONS.

 TIME INCREMENT COMPLETED  1.000E-02,  FRACTION OF STEP COMPLETED  0.126    
 STEP TIME COMPLETED       0.126    ,  TOTAL TIME COMPLETED        0.126    


  INCREMENT    24 STARTS. ATTEMPT NUMBER  1, TIME INCREMENT  1.000E-02
 
	REGULARIZED SYMMETRIC DIRECT SPARSE SOLVER RUNNING ON
 	1 HOST:        1 MPI RANK  x 1 THREAD
 	NUMBER OF EQUATIONS:     5820
 	NUMBER OF RHS:           1
 	NUMBER OF FLOPS:         5.704e+08

     CHECK POINT   START OF SOLVER    

     CHECK POINT  END OF SOLVER       

       ELAPSED USER TIME (SEC)      =  0.10000    
       ELAPSED SYSTEM TIME (SEC)    =   0.0000    
       ELAPSED TOTAL CPU TIME (SEC) =  0.10000    
       ELAPSED WALLCLOCK TIME (SEC) =          0

               CONVERGENCE CHECKS FOR EQUILIBRIUM ITERATION     1


 AVERAGE FORCE                      1.113E-03   TIME AVG. FORCE       3.527E-04
 LARGEST RESIDUAL FORCE             7.581E-12   AT NODE        477   DOF  3
   INSTANCE: CUBE-1                                                                          
 LARGEST INCREMENT OF DISP.         9.563E-03   AT NODE        337   DOF  3
   INSTANCE: CUBE-1                                                                          
 LARGEST CORRECTION TO DISP.       -2.813E-05   AT NODE         86   DOF  3
   INSTANCE: CUBE-1                                                                          
          THE FORCE     EQUILIBRIUM EQUATIONS HAVE CONVERGED

 AVERAGE PR. FLUX                   8.241E-17   TIME AVG. PR. FLUX    1.000E-02
 LARGEST RESIDUAL PR. FLUX         -5.455E-15   AT NODE        823
   INSTANCE: CUBE-1                                                                          
 LARGEST INCREMENT OF VOL. LM.      1.142E-05   AT NODE          6
   INSTANCE: CUBE-1                                                                          
 LARGEST CORRECTION TO VOL. LM.    -3.854E-08   AT NODE         62
   INSTANCE: CUBE-1                                                                          
          THERE IS ZERO PR. FLUX  EVERYWHERE
 

 ***WARNING: THERE IS ZERO PR. FLUX EVERYWHERE IN THE MODEL BASED ON THE 
             DEFAULT CRITERION. PLEASE CHECK THE VALUE OF THE AVERAGE PR. FLUX 
             DURING THE CURRENT ITERATION TO VERIFY THAT THE PR. FLUX IS SMALL 
             ENOUGH TO BE TREATED AS ZERO. IF NOT, PLEASE USE THE SOLUTION 
             CONTROLS TO RESET THE CRITERION FOR ZERO PR. FLUX.

 ITERATION SUMMARY FOR THE INCREMENT:   1 TOTAL ITERATIONS, OF WHICH
   0 ARE SEVERE DISCONTINUITY ITERATIONS AND  1 ARE EQUILIBRIUM ITERATIONS.

 TIME INCREMENT COMPLETED  1.000E-02,  FRACTION OF STEP COMPLETED  0.136    
 STEP TIME COMPLETED       0.136    ,  TOTAL TIME COMPLETED        0.136    


  INCREMENT    25 STARTS. ATTEMPT NUMBER  1, TIME INCREMENT  1.000E-02
 
	REGULARIZED SYMMETRIC DIRECT SPARSE SOLVER RUNNING ON
 	1 HOST:        1 MPI RANK  x 1 THREAD
 	NUMBER OF EQUATIONS:     5820
 	NUMBER OF RHS:           1
 	NUMBER OF FLOPS:         5.704e+08

     CHECK POINT   START OF SOLVER    

     CHECK POINT  END OF SOLVER       

       ELAPSED USER TIME (SEC)      =  0.10000    
       ELAPSED SYSTEM TIME (SEC)    =   0.0000    
       ELAPSED TOTAL CPU TIME (SEC) =  0.10000    
       ELAPSED WALLCLOCK TIME (SEC) =          0

               CONVERGENCE CHECKS FOR EQUILIBRIUM ITERATION     1


 AVERAGE FORCE                      1.192E-03   TIME AVG. FORCE       3.862E-04
 LARGEST RESIDUAL FORCE            -7.592E-12   AT NODE        335   DOF  3
   INSTANCE: CUBE-1                                                                          
 LARGEST INCREMENT OF DISP.         9.535E-03   AT NODE         82   DOF  3
   INSTANCE: CUBE-1                                                                          
 LARGEST CORRECTION TO DISP.       -2.802E-05   AT NODE        337   DOF  3
   INSTANCE: CUBE-1                                                                          
          THE FORCE     EQUILIBRIUM EQUATIONS HAVE CONVERGED

 AVERAGE PR. FLUX                   1.358E-16   TIME AVG. PR. FLUX    1.000E-02
 LARGEST RESIDUAL PR. FLUX          1.059E-14   AT NODE        750
   INSTANCE: CUBE-1                                                                          
 LARGEST INCREMENT OF VOL. LM.      1.138E-05   AT NODE       1150
   INSTANCE: CUBE-1                                                                          
 LARGEST CORRECTION TO VOL. LM.    -3.815E-08   AT NODE          6
   INSTANCE: CUBE-1                                                                          
          THERE IS ZERO PR. FLUX  EVERYWHERE
 

 ***WARNING: THERE IS ZERO PR. FLUX EVERYWHERE IN THE MODEL BASED ON THE 
             DEFAULT CRITERION. PLEASE CHECK THE VALUE OF THE AVERAGE PR. FLUX 
             DURING THE CURRENT ITERATION TO VERIFY THAT THE PR. FLUX IS SMALL 
             ENOUGH TO BE TREATED AS ZERO. IF NOT, PLEASE USE THE SOLUTION 
             CONTROLS TO RESET THE CRITERION FOR ZERO PR. FLUX.

 ITERATION SUMMARY FOR THE INCREMENT:   1 TOTAL ITERATIONS, OF WHICH
   0 ARE SEVERE DISCONTINUITY ITERATIONS AND  1 ARE EQUILIBRIUM ITERATIONS.

 TIME INCREMENT COMPLETED  1.000E-02,  FRACTION OF STEP COMPLETED  0.146    
 STEP TIME COMPLETED       0.146    ,  TOTAL TIME COMPLETED        0.146    


  INCREMENT    26 STARTS. ATTEMPT NUMBER  1, TIME INCREMENT  1.000E-02
 
	REGULARIZED SYMMETRIC DIRECT SPARSE SOLVER RUNNING ON
 	1 HOST:        1 MPI RANK  x 1 THREAD
 	NUMBER OF EQUATIONS:     5820
 	NUMBER OF RHS:           1
 	NUMBER OF FLOPS:         5.704e+08

     CHECK POINT   START OF SOLVER    

     CHECK POINT  END OF SOLVER       

       ELAPSED USER TIME (SEC)      =  0.10000    
       ELAPSED SYSTEM TIME (SEC)    =   0.0000    
       ELAPSED TOTAL CPU TIME (SEC) =  0.10000    
       ELAPSED WALLCLOCK TIME (SEC) =          0

               CONVERGENCE CHECKS FOR EQUILIBRIUM ITERATION     1


 AVERAGE FORCE                      1.270E-03   TIME AVG. FORCE       4.202E-04
 LARGEST RESIDUAL FORCE            -7.602E-12   AT NODE        312   DOF  3
   INSTANCE: CUBE-1                                                                          
 LARGEST INCREMENT OF DISP.         9.507E-03   AT NODE         85   DOF  3
   INSTANCE: CUBE-1                                                                          
 LARGEST CORRECTION TO DISP.       -2.792E-05   AT NODE         82   DOF  3
   INSTANCE: CUBE-1                                                                          
          THE FORCE     EQUILIBRIUM EQUATIONS HAVE CONVERGED

 AVERAGE PR. FLUX                   6.900E-17   TIME AVG. PR. FLUX    1.000E-02
 LARGEST RESIDUAL PR. FLUX         -5.518E-15   AT NODE        748
   INSTANCE: CUBE-1                                                                          
 LARGEST INCREMENT OF VOL. LM.      1.134E-05   AT NODE       1320
   INSTANCE: CUBE-1                                                                          
 LARGEST CORRECTION TO VOL. LM.    -3.776E-08   AT NODE        371
   INSTANCE: CUBE-1                                                                          
          THERE IS ZERO PR. FLUX  EVERYWHERE
 

 ***WARNING: THERE IS ZERO PR. FLUX EVERYWHERE IN THE MODEL BASED ON THE 
             DEFAULT CRITERION. PLEASE CHECK THE VALUE OF THE AVERAGE PR. FLUX 
             DURING THE CURRENT ITERATION TO VERIFY THAT THE PR. FLUX IS SMALL 
             ENOUGH TO BE TREATED AS ZERO. IF NOT, PLEASE USE THE SOLUTION 
             CONTROLS TO RESET THE CRITERION FOR ZERO PR. FLUX.

 ITERATION SUMMARY FOR THE INCREMENT:   1 TOTAL ITERATIONS, OF WHICH
   0 ARE SEVERE DISCONTINUITY ITERATIONS AND  1 ARE EQUILIBRIUM ITERATIONS.

 TIME INCREMENT COMPLETED  1.000E-02,  FRACTION OF STEP COMPLETED  0.156    
 STEP TIME COMPLETED       0.156    ,  TOTAL TIME COMPLETED        0.156    


  INCREMENT    27 STARTS. ATTEMPT NUMBER  1, TIME INCREMENT  1.000E-02
 
	REGULARIZED SYMMETRIC DIRECT SPARSE SOLVER RUNNING ON
 	1 HOST:        1 MPI RANK  x 1 THREAD
 	NUMBER OF EQUATIONS:     5820
 	NUMBER OF RHS:           1
 	NUMBER OF FLOPS:         5.704e+08

     CHECK POINT   START OF SOLVER    

     CHECK POINT  END OF SOLVER       

       ELAPSED USER TIME (SEC)      =  0.10000    
       ELAPSED SYSTEM TIME (SEC)    =   0.0000    
       ELAPSED TOTAL CPU TIME (SEC) =  0.10000    
       ELAPSED WALLCLOCK TIME (SEC) =          1

               CONVERGENCE CHECKS FOR EQUILIBRIUM ITERATION     1


 AVERAGE FORCE                      1.348E-03   TIME AVG. FORCE       4.546E-04
 LARGEST RESIDUAL FORCE            -7.613E-12   AT NODE        346   DOF  3
   INSTANCE: CUBE-1                                                                          
 LARGEST INCREMENT OF DISP.         9.480E-03   AT NODE        282   DOF  3
   INSTANCE: CUBE-1                                                                          
 LARGEST CORRECTION TO DISP.       -2.781E-05   AT NODE         85   DOF  3
   INSTANCE: CUBE-1                                                                          
          THE FORCE     EQUILIBRIUM EQUATIONS HAVE CONVERGED

 AVERAGE PR. FLUX                   1.370E-16   TIME AVG. PR. FLUX    1.000E-02
 LARGEST RESIDUAL PR. FLUX          1.006E-14   AT NODE        801
   INSTANCE: CUBE-1                                                                          
 LARGEST INCREMENT OF VOL. LM.      1.130E-05   AT NODE         79
   INSTANCE: CUBE-1                                                                          
 LARGEST CORRECTION TO VOL. LM.    -3.738E-08   AT NODE        888
   INSTANCE: CUBE-1                                                                          
          THERE IS ZERO PR. FLUX  EVERYWHERE
 

 ***WARNING: THERE IS ZERO PR. FLUX EVERYWHERE IN THE MODEL BASED ON THE 
             DEFAULT CRITERION. PLEASE CHECK THE VALUE OF THE AVERAGE PR. FLUX 
             DURING THE CURRENT ITERATION TO VERIFY THAT THE PR. FLUX IS SMALL 
             ENOUGH TO BE TREATED AS ZERO. IF NOT, PLEASE USE THE SOLUTION 
             CONTROLS TO RESET THE CRITERION FOR ZERO PR. FLUX.

 ITERATION SUMMARY FOR THE INCREMENT:   1 TOTAL ITERATIONS, OF WHICH
   0 ARE SEVERE DISCONTINUITY ITERATIONS AND  1 ARE EQUILIBRIUM ITERATIONS.

 TIME INCREMENT COMPLETED  1.000E-02,  FRACTION OF STEP COMPLETED  0.166    
 STEP TIME COMPLETED       0.166    ,  TOTAL TIME COMPLETED        0.166    


  INCREMENT    28 STARTS. ATTEMPT NUMBER  1, TIME INCREMENT  1.000E-02
 
	REGULARIZED SYMMETRIC DIRECT SPARSE SOLVER RUNNING ON
 	1 HOST:        1 MPI RANK  x 1 THREAD
 	NUMBER OF EQUATIONS:     5820
 	NUMBER OF RHS:           1
 	NUMBER OF FLOPS:         5.704e+08

     CHECK POINT   START OF SOLVER    

     CHECK POINT  END OF SOLVER       

       ELAPSED USER TIME (SEC)      =  0.10000    
       ELAPSED SYSTEM TIME (SEC)    =   0.0000    
       ELAPSED TOTAL CPU TIME (SEC) =  0.10000    
       ELAPSED WALLCLOCK TIME (SEC) =          0

               CONVERGENCE CHECKS FOR EQUILIBRIUM ITERATION     1


 AVERAGE FORCE                      1.426E-03   TIME AVG. FORCE       4.893E-04
 LARGEST RESIDUAL FORCE            -7.623E-12   AT NODE        317   DOF  3
   INSTANCE: CUBE-1                                                                          
 LARGEST INCREMENT OF DISP.         9.452E-03   AT NODE          7   DOF  3
   INSTANCE: CUBE-1                                                                          
 LARGEST CORRECTION TO DISP.       -2.770E-05   AT NODE        289   DOF  3
   INSTANCE: CUBE-1                                                                          
          THE FORCE     EQUILIBRIUM EQUATIONS HAVE CONVERGED

 AVERAGE PR. FLUX                   2.982E-17   TIME AVG. PR. FLUX    1.000E-02
 LARGEST RESIDUAL PR. FLUX          3.440E-15   AT NODE        642
   INSTANCE: CUBE-1                                                                          
 LARGEST INCREMENT OF VOL. LM.      1.126E-05   AT NODE        592
   INSTANCE: CUBE-1                                                                          
 LARGEST CORRECTION TO VOL. LM.    -3.700E-08   AT NODE         79
[...]
          THERE IS ZERO PR. FLUX  EVERYWHERE
 

 ***WARNING: THERE IS ZERO PR. FLUX EVERYWHERE IN THE MODEL BASED ON THE 
             DEFAULT CRITERION. PLEASE CHECK THE VALUE OF THE AVERAGE PR. FLUX 
             DURING THE CURRENT ITERATION TO VERIFY THAT THE PR. FLUX IS SMALL 
             ENOUGH TO BE TREATED AS ZERO. IF NOT, PLEASE USE THE SOLUTION 
             CONTROLS TO RESET THE CRITERION FOR ZERO PR. FLUX.

 ITERATION SUMMARY FOR THE INCREMENT:   1 TOTAL ITERATIONS, OF WHICH
   0 ARE SEVERE DISCONTINUITY ITERATIONS AND  1 ARE EQUILIBRIUM ITERATIONS.

 TIME INCREMENT COMPLETED  1.000E-02,  FRACTION OF STEP COMPLETED  0.936    
 STEP TIME COMPLETED       0.936    ,  TOTAL TIME COMPLETED        0.936    


  INCREMENT   105 STARTS. ATTEMPT NUMBER  1, TIME INCREMENT  1.000E-02
 
	REGULARIZED SYMMETRIC DIRECT SPARSE SOLVER RUNNING ON
 	1 HOST:        1 MPI RANK  x 1 THREAD
 	NUMBER OF EQUATIONS:     5820
 	NUMBER OF RHS:           1
 	NUMBER OF FLOPS:         5.704e+08

     CHECK POINT   START OF SOLVER    

     CHECK POINT  END OF SOLVER       

       ELAPSED USER TIME (SEC)      =  0.10000    
       ELAPSED SYSTEM TIME (SEC)    =   0.0000    
       ELAPSED TOTAL CPU TIME (SEC) =  0.10000    
       ELAPSED WALLCLOCK TIME (SEC) =          0

               CONVERGENCE CHECKS FOR EQUILIBRIUM ITERATION     1


 AVERAGE FORCE                      6.411E-03   TIME AVG. FORCE       3.133E-03
 LARGEST RESIDUAL FORCE            -8.290E-12   AT NODE        331   DOF  3
   INSTANCE: CUBE-1                                                                          
 LARGEST INCREMENT OF DISP.         7.604E-03   AT NODE         81   DOF  3
   INSTANCE: CUBE-1                                                                          
 LARGEST CORRECTION TO DISP.       -2.078E-05   AT NODE        302   DOF  3
   INSTANCE: CUBE-1                                                                          
          THE FORCE     EQUILIBRIUM RESPONSE WAS LINEAR IN THIS INCREMENT

 AVERAGE PR. FLUX                   1.080E-16   TIME AVG. PR. FLUX    1.000E-02
 LARGEST RESIDUAL PR. FLUX         -4.656E-15   AT NODE        683
   INSTANCE: CUBE-1                                                                          
 LARGEST INCREMENT OF VOL. LM.      9.312E-06   AT NODE         39
   INSTANCE: CUBE-1                                                                          
 LARGEST CORRECTION TO VOL. LM.    -1.643E-08   AT NODE        233
   INSTANCE: CUBE-1                                                                          
          THERE IS ZERO PR. FLUX  EVERYWHERE
 

 ***WARNING: THERE IS ZERO PR. FLUX EVERYWHERE IN THE MODEL BASED ON THE 
             DEFAULT CRITERION. PLEASE CHECK THE VALUE OF THE AVERAGE PR. FLUX 
             DURING THE CURRENT ITERATION TO VERIFY THAT THE PR. FLUX IS SMALL 
             ENOUGH TO BE TREATED AS ZERO. IF NOT, PLEASE USE THE SOLUTION 
             CONTROLS TO RESET THE CRITERION FOR ZERO PR. FLUX.

 ITERATION SUMMARY FOR THE INCREMENT:   1 TOTAL ITERATIONS, OF WHICH
   0 ARE SEVERE DISCONTINUITY ITERATIONS AND  1 ARE EQUILIBRIUM ITERATIONS.

 TIME INCREMENT COMPLETED  1.000E-02,  FRACTION OF STEP COMPLETED  0.946    
 STEP TIME COMPLETED       0.946    ,  TOTAL TIME COMPLETED        0.946    


  INCREMENT   106 STARTS. ATTEMPT NUMBER  1, TIME INCREMENT  1.000E-02
 
	REGULARIZED SYMMETRIC DIRECT SPARSE SOLVER RUNNING ON
 	1 HOST:        1 MPI RANK  x 1 THREAD
 	NUMBER OF EQUATIONS:     5820
 	NUMBER OF RHS:           1
 	NUMBER OF FLOPS:         5.704e+08

     CHECK POINT   START OF SOLVER    

     CHECK POINT  END OF SOLVER       

       ELAPSED USER TIME (SEC)      =  0.10000    
       ELAPSED SYSTEM TIME (SEC)    =   0.0000    
       ELAPSED TOTAL CPU TIME (SEC) =  0.10000    
       ELAPSED WALLCLOCK TIME (SEC) =          0

               CONVERGENCE CHECKS FOR EQUILIBRIUM ITERATION     1


 AVERAGE FORCE                      6.466E-03   TIME AVG. FORCE       3.164E-03
 LARGEST RESIDUAL FORCE            -8.297E-12   AT NODE        359   DOF  3
   INSTANCE: CUBE-1                                                                          
 LARGEST INCREMENT OF DISP.         7.584E-03   AT NODE          7   DOF  3
   INSTANCE: CUBE-1                                                                          
 LARGEST CORRECTION TO DISP.       -2.071E-05   AT NODE         81   DOF  3
   INSTANCE: CUBE-1                                                                          
          THE FORCE     EQUILIBRIUM RESPONSE WAS LINEAR IN THIS INCREMENT

 AVERAGE PR. FLUX                   1.786E-16   TIME AVG. PR. FLUX    1.000E-02
 LARGEST RESIDUAL PR. FLUX          6.818E-15   AT NODE        749
   INSTANCE: CUBE-1                                                                          
 LARGEST INCREMENT OF VOL. LM.      9.295E-06   AT NODE        431
   INSTANCE: CUBE-1                                                                          
 LARGEST CORRECTION TO VOL. LM.    -1.624E-08   AT NODE         39
   INSTANCE: CUBE-1                                                                          
          THERE IS ZERO PR. FLUX  EVERYWHERE
 

 ***WARNING: THERE IS ZERO PR. FLUX EVERYWHERE IN THE MODEL BASED ON THE 
             DEFAULT CRITERION. PLEASE CHECK THE VALUE OF THE AVERAGE PR. FLUX 
             DURING THE CURRENT ITERATION TO VERIFY THAT THE PR. FLUX IS SMALL 
             ENOUGH TO BE TREATED AS ZERO. IF NOT, PLEASE USE THE SOLUTION 
             CONTROLS TO RESET THE CRITERION FOR ZERO PR. FLUX.

 ITERATION SUMMARY FOR THE INCREMENT:   1 TOTAL ITERATIONS, OF WHICH
   0 ARE SEVERE DISCONTINUITY ITERATIONS AND  1 ARE EQUILIBRIUM ITERATIONS.

 TIME INCREMENT COMPLETED  1.000E-02,  FRACTION OF STEP COMPLETED  0.956    
 STEP TIME COMPLETED       0.956    ,  TOTAL TIME COMPLETED        0.956    


  INCREMENT   107 STARTS. ATTEMPT NUMBER  1, TIME INCREMENT  1.000E-02
 
	REGULARIZED SYMMETRIC DIRECT SPARSE SOLVER RUNNING ON
 	1 HOST:        1 MPI RANK  x 1 THREAD
 	NUMBER OF EQUATIONS:     5820
 	NUMBER OF RHS:           1
 	NUMBER OF FLOPS:         5.704e+08

     CHECK POINT   START OF SOLVER    

     CHECK POINT  END OF SOLVER       

       ELAPSED USER TIME (SEC)      =   0.0000    
       ELAPSED SYSTEM TIME (SEC)    =   0.0000    
       ELAPSED TOTAL CPU TIME (SEC) =   0.0000    
       ELAPSED WALLCLOCK TIME (SEC) =          0

               CONVERGENCE CHECKS FOR EQUILIBRIUM ITERATION     1


 AVERAGE FORCE                      6.520E-03   TIME AVG. FORCE       3.196E-03
 LARGEST RESIDUAL FORCE            -8.305E-12   AT NODE        354   DOF  3
   INSTANCE: CUBE-1                                                                          
 LARGEST INCREMENT OF DISP.         7.563E-03   AT NODE        321   DOF  3
   INSTANCE: CUBE-1                                                                          
 LARGEST CORRECTION TO DISP.       -2.064E-05   AT NODE          7   DOF  3
   INSTANCE: CUBE-1                                                                          
          THE FORCE     EQUILIBRIUM RESPONSE WAS LINEAR IN THIS INCREMENT

 AVERAGE PR. FLUX                   1.397E-16   TIME AVG. PR. FLUX    1.000E-02
 LARGEST RESIDUAL PR. FLUX         -4.700E-15   AT NODE        669
   INSTANCE: CUBE-1                                                                          
 LARGEST INCREMENT OF VOL. LM.      9.279E-06   AT NODE        539
   INSTANCE: CUBE-1                                                                          
 LARGEST CORRECTION TO VOL. LM.    -1.606E-08   AT NODE        105
   INSTANCE: CUBE-1                                                                          
          THERE IS ZERO PR. FLUX  EVERYWHERE
 

 ***WARNING: THERE IS ZERO PR. FLUX EVERYWHERE IN THE MODEL BASED ON THE 
             DEFAULT CRITERION. PLEASE CHECK THE VALUE OF THE AVERAGE PR. FLUX 
             DURING THE CURRENT ITERATION TO VERIFY THAT THE PR. FLUX IS SMALL 
             ENOUGH TO BE TREATED AS ZERO. IF NOT, PLEASE USE THE SOLUTION 
             CONTROLS TO RESET THE CRITERION FOR ZERO PR. FLUX.

 ITERATION SUMMARY FOR THE INCREMENT:   1 TOTAL ITERATIONS, OF WHICH
   0 ARE SEVERE DISCONTINUITY ITERATIONS AND  1 ARE EQUILIBRIUM ITERATIONS.

 TIME INCREMENT COMPLETED  1.000E-02,  FRACTION OF STEP COMPLETED  0.966    
 STEP TIME COMPLETED       0.966    ,  TOTAL TIME COMPLETED        0.966    


  INCREMENT   108 STARTS. ATTEMPT NUMBER  1, TIME INCREMENT  1.000E-02
 
	REGULARIZED SYMMETRIC DIRECT SPARSE SOLVER RUNNING ON
 	1 HOST:        1 MPI RANK  x 1 THREAD
 	NUMBER OF EQUATIONS:     5820
 	NUMBER OF RHS:           1
 	NUMBER OF FLOPS:         5.704e+08

     CHECK POINT   START OF SOLVER    

     CHECK POINT  END OF SOLVER       

       ELAPSED USER TIME (SEC)      =  0.10000    
       ELAPSED SYSTEM TIME (SEC)    =   0.0000    
       ELAPSED TOTAL CPU TIME (SEC) =  0.10000    
       ELAPSED WALLCLOCK TIME (SEC) =          0

               CONVERGENCE CHECKS FOR EQUILIBRIUM ITERATION     1


 AVERAGE FORCE                      6.574E-03   TIME AVG. FORCE       3.227E-03
 LARGEST RESIDUAL FORCE            -8.313E-12   AT NODE        292   DOF  3
   INSTANCE: CUBE-1                                                                          
 LARGEST INCREMENT OF DISP.         7.542E-03   AT NODE          7   DOF  3
   INSTANCE: CUBE-1                                                                          
 LARGEST CORRECTION TO DISP.       -2.056E-05   AT NODE        291   DOF  3
   INSTANCE: CUBE-1                                                                          
          THE FORCE     EQUILIBRIUM RESPONSE WAS LINEAR IN THIS INCREMENT

 AVERAGE PR. FLUX                   8.875E-17   TIME AVG. PR. FLUX    1.000E-02
 LARGEST RESIDUAL PR. FLUX         -5.922E-15   AT NODE       1090
   INSTANCE: CUBE-1                                                                          
 LARGEST INCREMENT OF VOL. LM.      9.263E-06   AT NODE        415
   INSTANCE: CUBE-1                                                                          
 LARGEST CORRECTION TO VOL. LM.    -1.588E-08   AT NODE        432
   INSTANCE: CUBE-1                                                                          
          THERE IS ZERO PR. FLUX  EVERYWHERE
 

 ***WARNING: THERE IS ZERO PR. FLUX EVERYWHERE IN THE MODEL BASED ON THE 
             DEFAULT CRITERION. PLEASE CHECK THE VALUE OF THE AVERAGE PR. FLUX 
             DURING THE CURRENT ITERATION TO VERIFY THAT THE PR. FLUX IS SMALL 
             ENOUGH TO BE TREATED AS ZERO. IF NOT, PLEASE USE THE SOLUTION 
             CONTROLS TO RESET THE CRITERION FOR ZERO PR. FLUX.

 ITERATION SUMMARY FOR THE INCREMENT:   1 TOTAL ITERATIONS, OF WHICH
   0 ARE SEVERE DISCONTINUITY ITERATIONS AND  1 ARE EQUILIBRIUM ITERATIONS.

 TIME INCREMENT COMPLETED  1.000E-02,  FRACTION OF STEP COMPLETED  0.976    
 STEP TIME COMPLETED       0.976    ,  TOTAL TIME COMPLETED        0.976    


  INCREMENT   109 STARTS. ATTEMPT NUMBER  1, TIME INCREMENT  1.000E-02
 
	REGULARIZED SYMMETRIC DIRECT SPARSE SOLVER RUNNING ON
 	1 HOST:        1 MPI RANK  x 1 THREAD
 	NUMBER OF EQUATIONS:     5820
 	NUMBER OF RHS:           1
 	NUMBER OF FLOPS:         5.704e+08

     CHECK POINT   START OF SOLVER    

     CHECK POINT  END OF SOLVER       

       ELAPSED USER TIME (SEC)      =  0.10000    
       ELAPSED SYSTEM TIME (SEC)    =   0.0000    
       ELAPSED TOTAL CPU TIME (SEC) =  0.10000    
       ELAPSED WALLCLOCK TIME (SEC) =          0

               CONVERGENCE CHECKS FOR EQUILIBRIUM ITERATION     1


 AVERAGE FORCE                      6.628E-03   TIME AVG. FORCE       3.258E-03
 LARGEST RESIDUAL FORCE            -8.320E-12   AT NODE        294   DOF  3
   INSTANCE: CUBE-1                                                                          
 LARGEST INCREMENT OF DISP.         7.522E-03   AT NODE         27   DOF  3
   INSTANCE: CUBE-1                                                                          
 LARGEST CORRECTION TO DISP.       -2.049E-05   AT NODE         81   DOF  3
   INSTANCE: CUBE-1                                                                          
          THE FORCE     EQUILIBRIUM RESPONSE WAS LINEAR IN THIS INCREMENT

 AVERAGE PR. FLUX                   1.902E-16   TIME AVG. PR. FLUX    1.000E-02
 LARGEST RESIDUAL PR. FLUX          1.006E-14   AT NODE        749
   INSTANCE: CUBE-1                                                                          
 LARGEST INCREMENT OF VOL. LM.      9.248E-06   AT NODE        106
   INSTANCE: CUBE-1                                                                          
 LARGEST CORRECTION TO VOL. LM.    -1.570E-08   AT NODE       1056
   INSTANCE: CUBE-1                                                                          
          THERE IS ZERO PR. FLUX  EVERYWHERE
 

 ***WARNING: THERE IS ZERO PR. FLUX EVERYWHERE IN THE MODEL BASED ON THE 
             DEFAULT CRITERION. PLEASE CHECK THE VALUE OF THE AVERAGE PR. FLUX 
             DURING THE CURRENT ITERATION TO VERIFY THAT THE PR. FLUX IS SMALL 
             ENOUGH TO BE TREATED AS ZERO. IF NOT, PLEASE USE THE SOLUTION 
             CONTROLS TO RESET THE CRITERION FOR ZERO PR. FLUX.

 ITERATION SUMMARY FOR THE INCREMENT:   1 TOTAL ITERATIONS, OF WHICH
   0 ARE SEVERE DISCONTINUITY ITERATIONS AND  1 ARE EQUILIBRIUM ITERATIONS.

 TIME INCREMENT COMPLETED  1.000E-02,  FRACTION OF STEP COMPLETED  0.986    
 STEP TIME COMPLETED       0.986    ,  TOTAL TIME COMPLETED        0.986    


  INCREMENT   110 STARTS. ATTEMPT NUMBER  1, TIME INCREMENT  1.000E-02
 
	REGULARIZED SYMMETRIC DIRECT SPARSE SOLVER RUNNING ON
 	1 HOST:        1 MPI RANK  x 1 THREAD
 	NUMBER OF EQUATIONS:     5820
 	NUMBER OF RHS:           1
 	NUMBER OF FLOPS:         5.704e+08

     CHECK POINT   START OF SOLVER    

     CHECK POINT  END OF SOLVER       

       ELAPSED USER TIME (SEC)      =  0.10000    
       ELAPSED SYSTEM TIME (SEC)    =   0.0000    
       ELAPSED TOTAL CPU TIME (SEC) =  0.10000    
       ELAPSED WALLCLOCK TIME (SEC) =          1

               CONVERGENCE CHECKS FOR EQUILIBRIUM ITERATION     1


 AVERAGE FORCE                      6.682E-03   TIME AVG. FORCE       3.289E-03
 LARGEST RESIDUAL FORCE            -8.328E-12   AT NODE        333   DOF  3
   INSTANCE: CUBE-1                                                                          
 LARGEST INCREMENT OF DISP.         7.501E-03   AT NODE        358   DOF  3
   INSTANCE: CUBE-1                                                                          
 LARGEST CORRECTION TO DISP.       -2.041E-05   AT NODE        309   DOF  3
   INSTANCE: CUBE-1                                                                          
          THE FORCE     EQUILIBRIUM RESPONSE WAS LINEAR IN THIS INCREMENT

 AVERAGE PR. FLUX                   1.198E-16   TIME AVG. PR. FLUX    1.000E-02
 LARGEST RESIDUAL PR. FLUX          7.130E-15   AT NODE        611
   INSTANCE: CUBE-1                                                                          
 LARGEST INCREMENT OF VOL. LM.      9.232E-06   AT NODE        414
   INSTANCE: CUBE-1                                                                          
 LARGEST CORRECTION TO VOL. LM.    -1.552E-08   AT NODE       1072
   INSTANCE: CUBE-1                                                                          
          THERE IS ZERO PR. FLUX  EVERYWHERE
 

 ***WARNING: THERE IS ZERO PR. FLUX EVERYWHERE IN THE MODEL BASED ON THE 
             DEFAULT CRITERION. PLEASE CHECK THE VALUE OF THE AVERAGE PR. FLUX 
             DURING THE CURRENT ITERATION TO VERIFY THAT THE PR. FLUX IS SMALL 
             ENOUGH TO BE TREATED AS ZERO. IF NOT, PLEASE USE THE SOLUTION 
             CONTROLS TO RESET THE CRITERION FOR ZERO PR. FLUX.

 ITERATION SUMMARY FOR THE INCREMENT:   1 TOTAL ITERATIONS, OF WHICH
   0 ARE SEVERE DISCONTINUITY ITERATIONS AND  1 ARE EQUILIBRIUM ITERATIONS.

 TIME INCREMENT COMPLETED  1.000E-02,  FRACTION OF STEP COMPLETED  0.996    
 STEP TIME COMPLETED       0.996    ,  TOTAL TIME COMPLETED        0.996    


  INCREMENT   111 STARTS. ATTEMPT NUMBER  1, TIME INCREMENT  4.151E-03
 
	REGULARIZED SYMMETRIC DIRECT SPARSE SOLVER RUNNING ON
 	1 HOST:        1 MPI RANK  x 1 THREAD
 	NUMBER OF EQUATIONS:     5820
 	NUMBER OF RHS:           1
 	NUMBER OF FLOPS:         5.704e+08

     CHECK POINT   START OF SOLVER    

     CHECK POINT  END OF SOLVER       

       ELAPSED USER TIME (SEC)      =  0.10000    
       ELAPSED SYSTEM TIME (SEC)    =   0.0000    
       ELAPSED TOTAL CPU TIME (SEC) =  0.10000    
       ELAPSED WALLCLOCK TIME (SEC) =          0

               CONVERGENCE CHECKS FOR EQUILIBRIUM ITERATION     1


 AVERAGE FORCE                      6.705E-03   TIME AVG. FORCE       3.320E-03
 LARGEST RESIDUAL FORCE            -7.167E-13   AT NODE        344   DOF  3
   INSTANCE: CUBE-1                                                                          
 LARGEST INCREMENT OF DISP.         3.108E-03   AT NODE         78   DOF  3
   INSTANCE: CUBE-1                                                                          
 LARGEST CORRECTION TO DISP.       -5.978E-06   AT NODE        358   DOF  3
   INSTANCE: CUBE-1                                                                          
          THE FORCE     EQUILIBRIUM RESPONSE WAS LINEAR IN THIS INCREMENT

 AVERAGE PR. FLUX                   7.609E-17   TIME AVG. PR. FLUX    1.000E-02
 LARGEST RESIDUAL PR. FLUX          6.195E-15   AT NODE        672
   INSTANCE: CUBE-1                                                                          
 LARGEST INCREMENT OF VOL. LM.      3.828E-06   AT NODE        602
   INSTANCE: CUBE-1                                                                          
 LARGEST CORRECTION TO VOL. LM.    -4.514E-09   AT NODE        101
   INSTANCE: CUBE-1                                                                          
          THERE IS ZERO PR. FLUX  EVERYWHERE
 

 ***WARNING: THERE IS ZERO PR. FLUX EVERYWHERE IN THE MODEL BASED ON THE 
             DEFAULT CRITERION. PLEASE CHECK THE VALUE OF THE AVERAGE PR. FLUX 
             DURING THE CURRENT ITERATION TO VERIFY THAT THE PR. FLUX IS SMALL 
             ENOUGH TO BE TREATED AS ZERO. IF NOT, PLEASE USE THE SOLUTION 
             CONTROLS TO RESET THE CRITERION FOR ZERO PR. FLUX.

 ITERATION SUMMARY FOR THE INCREMENT:   1 TOTAL ITERATIONS, OF WHICH
   0 ARE SEVERE DISCONTINUITY ITERATIONS AND  1 ARE EQUILIBRIUM ITERATIONS.

 TIME INCREMENT COMPLETED  4.151E-03,  FRACTION OF STEP COMPLETED   1.00    
 STEP TIME COMPLETED        1.00    ,  TOTAL TIME COMPLETED         1.00    


          THE ANALYSIS HAS BEEN COMPLETED



     ANALYSIS SUMMARY:
     TOTAL OF        111  INCREMENTS
                       0  CUTBACKS IN AUTOMATIC INCREMENTATION
                     112  ITERATIONS INCLUDING CONTACT ITERATIONS IF PRESENT
                     112  PASSES THROUGH THE EQUATION SOLVER OF WHICH 
                     112  INVOLVE MATRIX DECOMPOSITION, INCLUDING
                       0  DECOMPOSITION(S) OF THE MASS MATRIX
                       1  REORDERING OF EQUATIONS TO MINIMIZE WAVEFRONT
                       0  ADDITIONAL RESIDUAL EVALUATIONS FOR LINE SEARCHES
                       0  ADDITIONAL OPERATOR EVALUATIONS FOR LINE SEARCHES
                       0  WARNING MESSAGES DURING USER INPUT PROCESSING
                     112  WARNING MESSAGES DURING ANALYSIS
                       0  ANALYSIS WARNINGS ARE NUMERICAL PROBLEM MESSAGES
                       0  ANALYSIS WARNINGS ARE NEGATIVE EIGENVALUE MESSAGES
                       0  ERROR MESSAGES



     JOB TIME SUMMARY
       USER TIME (SEC)      =   39.100    
       SYSTEM TIME (SEC)    =   2.9000    
       TOTAL CPU TIME (SEC) =   42.000    
       WALLCLOCK TIME (SEC) =         42
