1

   Abaqus 2022                                  Date 23-Feb-2026   Time 11:07:21
   For use by UNIVERSITY OF MICHIGAN under license from Dassault Systemes or its subsidiary.

                                                                                 
                                                                                 
 STEP    1     INCREMENT     1     STEP TIME    0.00    


                        S T E P       1     S T A T I C   A N A L Y S I S


                                                                                          

     AUTOMATIC TIME CONTROL WITH -
          A SUGGESTED INITIAL TIME INCREMENT OF                1.000E-04
          AND A TOTAL TIME PERIOD OF                            1.00    
          THE MINIMUM TIME INCREMENT ALLOWED IS                1.000E-09
          THE MAXIMUM TIME INCREMENT ALLOWED IS                1.000E-02

     LINEAR EQUATION SOLVER TYPE         DIRECT SPARSE

 CONVERGENCE TOLERANCE PARAMETERS FOR FORCE    
     CRITERION FOR RESIDUAL FORCE     FOR A NONLINEAR PROBLEM          5.000E-03
     CRITERION FOR DISP.    CORRECTION IN A NONLINEAR PROBLEM          1.000E-02
     INITIAL VALUE OF TIME AVERAGE FORCE                               1.000E-02
     AVERAGE FORCE     IS TIME AVERAGE FORCE    
     ALTERNATE CRIT. FOR RESIDUAL FORCE     FOR A NONLINEAR PROBLEM    2.000E-02
     CRITERION FOR ZERO FORCE     RELATIVE TO TIME AVRG. FORCE         1.000E-05
     CRITERION FOR RESIDUAL FORCE     WHEN THERE IS ZERO FLUX          1.000E-05
     CRITERION FOR DISP.    CORRECTION WHEN THERE IS ZERO FLUX         1.000E-03
     CRITERION FOR RESIDUAL FORCE     FOR A LINEAR INCREMENT           1.000E-08
     FIELD CONVERSION RATIO                                             1.00    
     CRITERION FOR ZERO FORCE     REL. TO TIME AVRG. MAX. FORCE        1.000E-05
     CRITERION FOR ZERO DISP.    RELATIVE TO CHARACTERISTIC LENGTH     1.000E-08

 CONVERGENCE TOLERANCE PARAMETERS FOR PR. FLUX 
     CRITERION FOR RESIDUAL PR. FLUX  FOR A NONLINEAR PROBLEM          5.000E-03
     CRITERION FOR VOL. LM. CORRECTION IN A NONLINEAR PROBLEM          1.000E-02
     INITIAL VALUE OF TIME AVERAGE PR. FLUX                            1.000E-02
     AVERAGE PR. FLUX  IS TIME AVERAGE PR. FLUX 
     ALTERNATE CRIT. FOR RESIDUAL PR. FLUX  FOR A NONLINEAR PROBLEM    2.000E-02
     CRITERION FOR ZERO PR. FLUX  RELATIVE TO TIME AVRG. PR. FLUX      1.000E-05
     CRITERION FOR RESIDUAL PR. FLUX  WHEN THERE IS ZERO FLUX          1.000E-05
     CRITERION FOR VOL. LM. CORRECTION WHEN THERE IS ZERO FLUX         1.000E-03
     CRITERION FOR RESIDUAL PR. FLUX  FOR A LINEAR INCREMENT           1.000E-08
     FIELD CONVERSION RATIO                                             1.00    
     CRITERION FOR ZERO PR. FLUX  REL. TO TIME AVRG. MAX. PR. FLUX     1.000E-05

     VOLUMETRIC STRAIN COMPATIBILITY TOLERANCE FOR HYBRID SOLIDS       1.000E-05
     AXIAL STRAIN COMPATIBILITY TOLERANCE FOR HYBRID BEAMS             1.000E-05
     TRANS. SHEAR STRAIN COMPATIBILITY TOLERANCE FOR HYBRID BEAMS      1.000E-05
     SOFT CONTACT CONSTRAINT COMPATIBILITY TOLERANCE FOR P>P0          5.000E-03
     SOFT CONTACT CONSTRAINT COMPATIBILITY TOLERANCE FOR P=0.0         0.100    
     CONTACT FORCE ERROR TOLERANCE FOR CONVERT SDI=YES                 1.00    
     DISPLACEMENT COMPATIBILITY TOLERANCE FOR DCOUP ELEMENTS           1.000E-05
     ROTATION COMPATIBILITY TOLERANCE FOR DCOUP ELEMENTS               1.000E-05

 EQUILIBRIUM WILL BE CHECKED FOR SEVERE DISCONTINUITY ITERATIONS

 TIME INCREMENTATION CONTROL PARAMETERS:
     FIRST EQUILIBRIUM ITERATION FOR CONSECUTIVE DIVERGENCE CHECK              4
     EQUILIBRIUM ITERATION AT WHICH LOG. CONVERGENCE RATE CHECK BEGINS         8
     EQUILIBRIUM ITERATION AFTER WHICH ALTERNATE RESIDUAL IS USED              9
     MAXIMUM EQUILIBRIUM ITERATIONS ALLOWED                                   16
     EQUILIBRIUM ITERATION COUNT FOR CUT-BACK IN NEXT INCREMENT               10
     MAXIMUM EQUILIB. ITERS IN TWO INCREMENTS FOR TIME INCREMENT INCREASE      4
     MAXIMUM ITERATIONS FOR SEVERE DISCONTINUITIES                            50
     MAXIMUM ATTEMPTS ALLOWED IN AN INCREMENT                                  5
     MAXIMUM DISCON. ITERS IN TWO INCREMENTS FOR TIME INCREMENT INCREASE      50
     MAXIMUM CONTACT AUGMENTATIONS FOR *SURFACE BEHAVIOR,AUGMENTED LAGRANGE   50
     CUT-BACK FACTOR AFTER DIVERGENCE                                 0.2500    
     CUT-BACK FACTOR FOR TOO SLOW CONVERGENCE                         0.5000    
     CUT-BACK FACTOR AFTER TOO MANY EQUILIBRIUM ITERATIONS            0.7500    
     CUT-BACK FACTOR AFTER TOO MANY SEVERE DISCONTINUITY ITERATIONS   0.2500    
     CUT-BACK FACTOR AFTER PROBLEMS IN ELEMENT ASSEMBLY               0.2500    
     INCREASE FACTOR AFTER TWO INCREMENTS THAT CONVERGE QUICKLY        1.500    
     MAX. TIME INCREMENT INCREASE FACTOR ALLOWED                       1.500    
     MAX. TIME INCREMENT INCREASE FACTOR ALLOWED (DYNAMICS)            1.250    
     MAX. TIME INCREMENT INCREASE FACTOR ALLOWED (DIFFUSION)           2.000    
     MINIMUM TIME INCREMENT RATIO FOR EXTRAPOLATION TO OCCUR          0.1000    
     MAX. RATIO OF TIME INCREMENT TO STABILITY LIMIT                   1.000    
     FRACTION OF STABILITY LIMIT FOR NEW TIME INCREMENT               0.9500    
     TIME INCREMENT INCREASE FACTOR BEFORE A TIME POINT                1.000    
     GLOBAL STABILIZATION CONTROL IS NOT USED

          PRINT OF INCREMENT NUMBER, TIME, ETC., EVERY    1  INCREMENTS

     THE MAXIMUM NUMBER OF INCREMENTS IN THIS STEP IS                   10000

          LARGE DISPLACEMENT THEORY WILL BE USED

     LINEAR EXTRAPOLATION WILL BE USED

     CHARACTERISTIC ELEMENT LENGTH     0.758    

     DETAILS REGARDING ACTUAL SOLUTION WAVEFRONT REQUESTED

     DETAILED OUTPUT OF DIAGNOSTICS TO DATABASE REQUESTED

     PRINT OF INCREMENT NUMBER, TIME, ETC., TO THE MESSAGE FILE EVERY     1  INCREMENTS

     COLLECTING MODEL CONSTRAINT INFORMATION FOR OVERCONSTRAINT CHECKS

     COLLECTING STEP CONSTRAINT INFORMATION FOR OVERCONSTRAINT CHECKS


  INCREMENT     1 STARTS. ATTEMPT NUMBER  1, TIME INCREMENT  1.000E-04
 
	REGULARIZED SYMMETRIC DIRECT SPARSE SOLVER RUNNING ON
 	1 HOST:        1 MPI RANK  x 1 THREAD
 	NUMBER OF EQUATIONS:     5820
 	NUMBER OF RHS:           1
 	NUMBER OF FLOPS:         5.704e+08

     CHECK POINT   START OF SOLVER    

     CHECK POINT  END OF SOLVER       

       ELAPSED USER TIME (SEC)      =  0.10000    
       ELAPSED SYSTEM TIME (SEC)    =   0.0000    
       ELAPSED TOTAL CPU TIME (SEC) =  0.10000    
       ELAPSED WALLCLOCK TIME (SEC) =          0

               CONVERGENCE CHECKS FOR EQUILIBRIUM ITERATION     1


 AVERAGE FORCE                      4.296E-05   TIME AVG. FORCE       4.296E-05
 LARGEST RESIDUAL FORCE             1.748E-18   AT NODE       1059   DOF  2
   INSTANCE: CUBE-1                                                                          
 LARGEST INCREMENT OF DISP.        -5.000E-05   AT NODE          5   DOF  2
   INSTANCE: CUBE-1                                                                          
 LARGEST CORRECTION TO DISP.       -5.000E-05   AT NODE          5   DOF  2
   INSTANCE: CUBE-1                                                                          
          THE FORCE     EQUILIBRIUM RESPONSE WAS LINEAR IN THIS INCREMENT

 AVERAGE PR. FLUX                   1.301E-23   TIME AVG. PR. FLUX    1.000E-02
 LARGEST RESIDUAL PR. FLUX         -1.709E-21   AT NODE        735
   INSTANCE: CUBE-1                                                                          
 LARGEST INCREMENT OF VOL. LM.     -1.000E-05   AT NODE         59
   INSTANCE: CUBE-1                                                                          
 LARGEST CORRECTION TO VOL. LM.    -1.000E-05   AT NODE         59
   INSTANCE: CUBE-1                                                                          
          THERE IS ZERO PR. FLUX  EVERYWHERE
 

 ***WARNING: THERE IS ZERO PR. FLUX EVERYWHERE IN THE MODEL BASED ON THE 
             DEFAULT CRITERION. PLEASE CHECK THE VALUE OF THE AVERAGE PR. FLUX 
             DURING THE CURRENT ITERATION TO VERIFY THAT THE PR. FLUX IS SMALL 
             ENOUGH TO BE TREATED AS ZERO. IF NOT, PLEASE USE THE SOLUTION 
             CONTROLS TO RESET THE CRITERION FOR ZERO PR. FLUX.

 ITERATION SUMMARY FOR THE INCREMENT:   1 TOTAL ITERATIONS, OF WHICH
   0 ARE SEVERE DISCONTINUITY ITERATIONS AND  1 ARE EQUILIBRIUM ITERATIONS.

 TIME INCREMENT COMPLETED  1.000E-04,  FRACTION OF STEP COMPLETED  1.000E-04
 STEP TIME COMPLETED       1.000E-04,  TOTAL TIME COMPLETED        1.000E-04


  INCREMENT     2 STARTS. ATTEMPT NUMBER  1, TIME INCREMENT  1.000E-04
 
	REGULARIZED SYMMETRIC DIRECT SPARSE SOLVER RUNNING ON
 	1 HOST:        1 MPI RANK  x 1 THREAD
 	NUMBER OF EQUATIONS:     5820
 	NUMBER OF RHS:           1
 	NUMBER OF FLOPS:         5.704e+08

     CHECK POINT   START OF SOLVER    

     CHECK POINT  END OF SOLVER       

       ELAPSED USER TIME (SEC)      =   0.0000    
       ELAPSED SYSTEM TIME (SEC)    =   0.0000    
       ELAPSED TOTAL CPU TIME (SEC) =   0.0000    
       ELAPSED WALLCLOCK TIME (SEC) =          1

               CONVERGENCE CHECKS FOR EQUILIBRIUM ITERATION     1


 AVERAGE FORCE                      9.482E-05   TIME AVG. FORCE       6.889E-05
 LARGEST RESIDUAL FORCE            -7.187E-19   AT NODE       1149   DOF  2
   INSTANCE: CUBE-1                                                                          
 LARGEST INCREMENT OF DISP.        -5.000E-05   AT NODE          5   DOF  2
   INSTANCE: CUBE-1                                                                          
 LARGEST CORRECTION TO DISP.        1.118E-18   AT NODE        525   DOF  1
   INSTANCE: CUBE-1                                                                          
          THE FORCE     EQUILIBRIUM RESPONSE WAS LINEAR IN THIS INCREMENT

 AVERAGE PR. FLUX                   2.237E-23   TIME AVG. PR. FLUX    1.000E-02
 LARGEST RESIDUAL PR. FLUX         -3.016E-21   AT NODE        622
   INSTANCE: CUBE-1                                                                          
 LARGEST INCREMENT OF VOL. LM.     -1.000E-05   AT NODE        577
   INSTANCE: CUBE-1                                                                          
 LARGEST CORRECTION TO VOL. LM.    -3.762E-19   AT NODE        577
   INSTANCE: CUBE-1                                                                          
          THERE IS ZERO PR. FLUX  EVERYWHERE
 

 ***WARNING: THERE IS ZERO PR. FLUX EVERYWHERE IN THE MODEL BASED ON THE 
             DEFAULT CRITERION. PLEASE CHECK THE VALUE OF THE AVERAGE PR. FLUX 
             DURING THE CURRENT ITERATION TO VERIFY THAT THE PR. FLUX IS SMALL 
             ENOUGH TO BE TREATED AS ZERO. IF NOT, PLEASE USE THE SOLUTION 
             CONTROLS TO RESET THE CRITERION FOR ZERO PR. FLUX.
          TIME INCREMENT MAY NOW INCREASE TO    1.500E-04

 ITERATION SUMMARY FOR THE INCREMENT:   1 TOTAL ITERATIONS, OF WHICH
   0 ARE SEVERE DISCONTINUITY ITERATIONS AND  1 ARE EQUILIBRIUM ITERATIONS.

 TIME INCREMENT COMPLETED  1.000E-04,  FRACTION OF STEP COMPLETED  2.000E-04
 STEP TIME COMPLETED       2.000E-04,  TOTAL TIME COMPLETED        2.000E-04


  INCREMENT     3 STARTS. ATTEMPT NUMBER  1, TIME INCREMENT  1.500E-04
 
	REGULARIZED SYMMETRIC DIRECT SPARSE SOLVER RUNNING ON
 	1 HOST:        1 MPI RANK  x 1 THREAD
 	NUMBER OF EQUATIONS:     5820
 	NUMBER OF RHS:           1
 	NUMBER OF FLOPS:         5.704e+08

     CHECK POINT   START OF SOLVER    

     CHECK POINT  END OF SOLVER       

       ELAPSED USER TIME (SEC)      =  0.10000    
       ELAPSED SYSTEM TIME (SEC)    =   0.0000    
       ELAPSED TOTAL CPU TIME (SEC) =  0.10000    
       ELAPSED WALLCLOCK TIME (SEC) =          0

               CONVERGENCE CHECKS FOR EQUILIBRIUM ITERATION     1


 AVERAGE FORCE                      1.659E-04   TIME AVG. FORCE       1.012E-04
 LARGEST RESIDUAL FORCE             1.545E-18   AT NODE        907   DOF  2
   INSTANCE: CUBE-1                                                                          
 LARGEST INCREMENT OF DISP.        -7.500E-05   AT NODE          5   DOF  2
   INSTANCE: CUBE-1                                                                          
 LARGEST CORRECTION TO DISP.       -1.633E-18   AT NODE        551   DOF  1
   INSTANCE: CUBE-1                                                                          
          THE FORCE     EQUILIBRIUM RESPONSE WAS LINEAR IN THIS INCREMENT

 AVERAGE PR. FLUX                   3.810E-23   TIME AVG. PR. FLUX    1.000E-02
 LARGEST RESIDUAL PR. FLUX          5.071E-21   AT NODE       1243
   INSTANCE: CUBE-1                                                                          
 LARGEST INCREMENT OF VOL. LM.     -1.500E-05   AT NODE        553
   INSTANCE: CUBE-1                                                                          
 LARGEST CORRECTION TO VOL. LM.     5.770E-19   AT NODE        116
   INSTANCE: CUBE-1                                                                          
          THERE IS ZERO PR. FLUX  EVERYWHERE
 

 ***WARNING: THERE IS ZERO PR. FLUX EVERYWHERE IN THE MODEL BASED ON THE 
             DEFAULT CRITERION. PLEASE CHECK THE VALUE OF THE AVERAGE PR. FLUX 
             DURING THE CURRENT ITERATION TO VERIFY THAT THE PR. FLUX IS SMALL 
             ENOUGH TO BE TREATED AS ZERO. IF NOT, PLEASE USE THE SOLUTION 
             CONTROLS TO RESET THE CRITERION FOR ZERO PR. FLUX.
          TIME INCREMENT MAY NOW INCREASE TO    2.250E-04

 ITERATION SUMMARY FOR THE INCREMENT:   1 TOTAL ITERATIONS, OF WHICH
   0 ARE SEVERE DISCONTINUITY ITERATIONS AND  1 ARE EQUILIBRIUM ITERATIONS.

 TIME INCREMENT COMPLETED  1.500E-04,  FRACTION OF STEP COMPLETED  3.500E-04
 STEP TIME COMPLETED       3.500E-04,  TOTAL TIME COMPLETED        3.500E-04


  INCREMENT     4 STARTS. ATTEMPT NUMBER  1, TIME INCREMENT  2.250E-04
 
	REGULARIZED SYMMETRIC DIRECT SPARSE SOLVER RUNNING ON
 	1 HOST:        1 MPI RANK  x 1 THREAD
 	NUMBER OF EQUATIONS:     5820
 	NUMBER OF RHS:           1
 	NUMBER OF FLOPS:         5.704e+08

     CHECK POINT   START OF SOLVER    

     CHECK POINT  END OF SOLVER       

       ELAPSED USER TIME (SEC)      =   0.0000    
       ELAPSED SYSTEM TIME (SEC)    =   0.0000    
       ELAPSED TOTAL CPU TIME (SEC) =   0.0000    
       ELAPSED WALLCLOCK TIME (SEC) =          0

               CONVERGENCE CHECKS FOR EQUILIBRIUM ITERATION     1


 AVERAGE FORCE                      2.726E-04   TIME AVG. FORCE       1.441E-04
 LARGEST RESIDUAL FORCE            -4.068E-18   AT NODE       1295   DOF  2
   INSTANCE: CUBE-1                                                                          
 LARGEST INCREMENT OF DISP.        -1.125E-04   AT NODE          5   DOF  2
   INSTANCE: CUBE-1                                                                          
 LARGEST CORRECTION TO DISP.        3.020E-18   AT NODE        551   DOF  3
   INSTANCE: CUBE-1                                                                          
          THE FORCE     EQUILIBRIUM RESPONSE WAS LINEAR IN THIS INCREMENT

 AVERAGE PR. FLUX                   6.714E-23   TIME AVG. PR. FLUX    1.000E-02
 LARGEST RESIDUAL PR. FLUX          8.219E-21   AT NODE       1038
   INSTANCE: CUBE-1                                                                          
 LARGEST INCREMENT OF VOL. LM.     -2.250E-05   AT NODE        116
   INSTANCE: CUBE-1                                                                          
 LARGEST CORRECTION TO VOL. LM.    -9.277E-19   AT NODE        116
   INSTANCE: CUBE-1                                                                          
          THERE IS ZERO PR. FLUX  EVERYWHERE
 

 ***WARNING: THERE IS ZERO PR. FLUX EVERYWHERE IN THE MODEL BASED ON THE 
             DEFAULT CRITERION. PLEASE CHECK THE VALUE OF THE AVERAGE PR. FLUX 
             DURING THE CURRENT ITERATION TO VERIFY THAT THE PR. FLUX IS SMALL 
             ENOUGH TO BE TREATED AS ZERO. IF NOT, PLEASE USE THE SOLUTION 
             CONTROLS TO RESET THE CRITERION FOR ZERO PR. FLUX.
          TIME INCREMENT MAY NOW INCREASE TO    3.375E-04

 ITERATION SUMMARY FOR THE INCREMENT:   1 TOTAL ITERATIONS, OF WHICH
   0 ARE SEVERE DISCONTINUITY ITERATIONS AND  1 ARE EQUILIBRIUM ITERATIONS.

 TIME INCREMENT COMPLETED  2.250E-04,  FRACTION OF STEP COMPLETED  5.750E-04
 STEP TIME COMPLETED       5.750E-04,  TOTAL TIME COMPLETED        5.750E-04


  INCREMENT     5 STARTS. ATTEMPT NUMBER  1, TIME INCREMENT  3.375E-04
 
	REGULARIZED SYMMETRIC DIRECT SPARSE SOLVER RUNNING ON
 	1 HOST:        1 MPI RANK  x 1 THREAD
 	NUMBER OF EQUATIONS:     5820
 	NUMBER OF RHS:           1
 	NUMBER OF FLOPS:         5.704e+08

     CHECK POINT   START OF SOLVER    

     CHECK POINT  END OF SOLVER       

       ELAPSED USER TIME (SEC)      =  0.10000    
       ELAPSED SYSTEM TIME (SEC)    =  0.10000    
       ELAPSED TOTAL CPU TIME (SEC) =  0.20000    
       ELAPSED WALLCLOCK TIME (SEC) =          0

               CONVERGENCE CHECKS FOR EQUILIBRIUM ITERATION     1


 AVERAGE FORCE                      4.326E-04   TIME AVG. FORCE       2.018E-04
 LARGEST RESIDUAL FORCE             6.063E-18   AT NODE        647   DOF  2
   INSTANCE: CUBE-1                                                                          
 LARGEST INCREMENT OF DISP.        -1.688E-04   AT NODE          5   DOF  2
   INSTANCE: CUBE-1                                                                          
 LARGEST CORRECTION TO DISP.       -5.081E-18   AT NODE        260   DOF  2
   INSTANCE: CUBE-1                                                                          
          THE FORCE     EQUILIBRIUM RESPONSE WAS LINEAR IN THIS INCREMENT

 AVERAGE PR. FLUX                   9.911E-23   TIME AVG. PR. FLUX    1.000E-02
 LARGEST RESIDUAL PR. FLUX         -1.339E-20   AT NODE        610
   INSTANCE: CUBE-1                                                                          
 LARGEST INCREMENT OF VOL. LM.     -3.375E-05   AT NODE        232
   INSTANCE: CUBE-1                                                                          
 LARGEST CORRECTION TO VOL. LM.     1.917E-18   AT NODE          5
   INSTANCE: CUBE-1                                                                          
          THERE IS ZERO PR. FLUX  EVERYWHERE
 

 ***WARNING: THERE IS ZERO PR. FLUX EVERYWHERE IN THE MODEL BASED ON THE 
             DEFAULT CRITERION. PLEASE CHECK THE VALUE OF THE AVERAGE PR. FLUX 
             DURING THE CURRENT ITERATION TO VERIFY THAT THE PR. FLUX IS SMALL 
             ENOUGH TO BE TREATED AS ZERO. IF NOT, PLEASE USE THE SOLUTION 
             CONTROLS TO RESET THE CRITERION FOR ZERO PR. FLUX.
          TIME INCREMENT MAY NOW INCREASE TO    5.062E-04

 ITERATION SUMMARY FOR THE INCREMENT:   1 TOTAL ITERATIONS, OF WHICH
   0 ARE SEVERE DISCONTINUITY ITERATIONS AND  1 ARE EQUILIBRIUM ITERATIONS.

 TIME INCREMENT COMPLETED  3.375E-04,  FRACTION OF STEP COMPLETED  9.125E-04
 STEP TIME COMPLETED       9.125E-04,  TOTAL TIME COMPLETED        9.125E-04


  INCREMENT     6 STARTS. ATTEMPT NUMBER  1, TIME INCREMENT  5.062E-04
 
	REGULARIZED SYMMETRIC DIRECT SPARSE SOLVER RUNNING ON
 	1 HOST:        1 MPI RANK  x 1 THREAD
 	NUMBER OF EQUATIONS:     5820
 	NUMBER OF RHS:           1
 	NUMBER OF FLOPS:         5.704e+08

     CHECK POINT   START OF SOLVER    

     CHECK POINT  END OF SOLVER       

       ELAPSED USER TIME (SEC)      =  0.10000    
       ELAPSED SYSTEM TIME (SEC)    =   0.0000    
       ELAPSED TOTAL CPU TIME (SEC) =  0.10000    
       ELAPSED WALLCLOCK TIME (SEC) =          0

               CONVERGENCE CHECKS FOR EQUILIBRIUM ITERATION     1


 AVERAGE FORCE                      6.726E-04   TIME AVG. FORCE       2.803E-04
 LARGEST RESIDUAL FORCE            -5.275E-17   AT NODE       1063   DOF  2
   INSTANCE: CUBE-1                                                                          
 LARGEST INCREMENT OF DISP.        -2.531E-04   AT NODE          5   DOF  2
   INSTANCE: CUBE-1                                                                          
 LARGEST CORRECTION TO DISP.       -1.880E-17   AT NODE       1063   DOF  2
   INSTANCE: CUBE-1                                                                          
          THE FORCE     EQUILIBRIUM RESPONSE WAS LINEAR IN THIS INCREMENT

 AVERAGE PR. FLUX                   3.251E-18   TIME AVG. PR. FLUX    1.000E-02
 LARGEST RESIDUAL PR. FLUX          1.219E-15   AT NODE        619
   INSTANCE: CUBE-1                                                                          
 LARGEST INCREMENT OF VOL. LM.     -5.063E-05   AT NODE        116
   INSTANCE: CUBE-1                                                                          
 LARGEST CORRECTION TO VOL. LM.    -6.431E-18   AT NODE        116
   INSTANCE: CUBE-1                                                                          
          THERE IS ZERO PR. FLUX  EVERYWHERE
 

 ***WARNING: THERE IS ZERO PR. FLUX EVERYWHERE IN THE MODEL BASED ON THE 
             DEFAULT CRITERION. PLEASE CHECK THE VALUE OF THE AVERAGE PR. FLUX 
             DURING THE CURRENT ITERATION TO VERIFY THAT THE PR. FLUX IS SMALL 
             ENOUGH TO BE TREATED AS ZERO. IF NOT, PLEASE USE THE SOLUTION 
             CONTROLS TO RESET THE CRITERION FOR ZERO PR. FLUX.
          TIME INCREMENT MAY NOW INCREASE TO    7.594E-04

 ITERATION SUMMARY FOR THE INCREMENT:   1 TOTAL ITERATIONS, OF WHICH
   0 ARE SEVERE DISCONTINUITY ITERATIONS AND  1 ARE EQUILIBRIUM ITERATIONS.

 TIME INCREMENT COMPLETED  5.062E-04,  FRACTION OF STEP COMPLETED  1.419E-03
 STEP TIME COMPLETED       1.419E-03,  TOTAL TIME COMPLETED        1.419E-03


  INCREMENT     7 STARTS. ATTEMPT NUMBER  1, TIME INCREMENT  7.594E-04
 
	REGULARIZED SYMMETRIC DIRECT SPARSE SOLVER RUNNING ON
 	1 HOST:        1 MPI RANK  x 1 THREAD
 	NUMBER OF EQUATIONS:     5820
 	NUMBER OF RHS:           1
 	NUMBER OF FLOPS:         5.704e+08

     CHECK POINT   START OF SOLVER    

     CHECK POINT  END OF SOLVER       

       ELAPSED USER TIME (SEC)      =  0.10000    
       ELAPSED SYSTEM TIME (SEC)    =   0.0000    
       ELAPSED TOTAL CPU TIME (SEC) =  0.10000    
       ELAPSED WALLCLOCK TIME (SEC) =          0

               CONVERGENCE CHECKS FOR EQUILIBRIUM ITERATION     1


 AVERAGE FORCE                      1.033E-03   TIME AVG. FORCE       3.877E-04
 LARGEST RESIDUAL FORCE             4.619E-17   AT NODE        948   DOF  2
   INSTANCE: CUBE-1                                                                          
 LARGEST INCREMENT OF DISP.        -3.797E-04   AT NODE          5   DOF  2
   INSTANCE: CUBE-1                                                                          
 LARGEST CORRECTION TO DISP.       -5.545E-17   AT NODE         54   DOF  3
   INSTANCE: CUBE-1                                                                          
          THE FORCE     EQUILIBRIUM RESPONSE WAS LINEAR IN THIS INCREMENT

 AVERAGE PR. FLUX                   3.318E-18   TIME AVG. PR. FLUX    1.000E-02
 LARGEST RESIDUAL PR. FLUX          1.071E-15   AT NODE        754
   INSTANCE: CUBE-1                                                                          
 LARGEST INCREMENT OF VOL. LM.     -7.594E-05   AT NODE         79
   INSTANCE: CUBE-1                                                                          
 LARGEST CORRECTION TO VOL. LM.    -1.579E-17   AT NODE       1358
   INSTANCE: CUBE-1                                                                          
          THERE IS ZERO PR. FLUX  EVERYWHERE
 

 ***WARNING: THERE IS ZERO PR. FLUX EVERYWHERE IN THE MODEL BASED ON THE 
             DEFAULT CRITERION. PLEASE CHECK THE VALUE OF THE AVERAGE PR. FLUX 
             DURING THE CURRENT ITERATION TO VERIFY THAT THE PR. FLUX IS SMALL 
             ENOUGH TO BE TREATED AS ZERO. IF NOT, PLEASE USE THE SOLUTION 
             CONTROLS TO RESET THE CRITERION FOR ZERO PR. FLUX.
          TIME INCREMENT MAY NOW INCREASE TO    1.139E-03

 ITERATION SUMMARY FOR THE INCREMENT:   1 TOTAL ITERATIONS, OF WHICH
   0 ARE SEVERE DISCONTINUITY ITERATIONS AND  1 ARE EQUILIBRIUM ITERATIONS.

 TIME INCREMENT COMPLETED  7.594E-04,  FRACTION OF STEP COMPLETED  2.178E-03
 STEP TIME COMPLETED       2.178E-03,  TOTAL TIME COMPLETED        2.178E-03


  INCREMENT     8 STARTS. ATTEMPT NUMBER  1, TIME INCREMENT  1.139E-03
 
	REGULARIZED SYMMETRIC DIRECT SPARSE SOLVER RUNNING ON
 	1 HOST:        1 MPI RANK  x 1 THREAD
 	NUMBER OF EQUATIONS:     5820
 	NUMBER OF RHS:           1
 	NUMBER OF FLOPS:         5.704e+08

     CHECK POINT   START OF SOLVER    

     CHECK POINT  END OF SOLVER       

       ELAPSED USER TIME (SEC)      =  0.10000    
       ELAPSED SYSTEM TIME (SEC)    =   0.0000    
       ELAPSED TOTAL CPU TIME (SEC) =  0.10000    
       ELAPSED WALLCLOCK TIME (SEC) =          0

               CONVERGENCE CHECKS FOR EQUILIBRIUM ITERATION     1


 AVERAGE FORCE                      1.572E-03   TIME AVG. FORCE       5.358E-04
 LARGEST RESIDUAL FORCE             8.587E-17   AT NODE       1307   DOF  2
   INSTANCE: CUBE-1                                                                          
 LARGEST INCREMENT OF DISP.        -5.695E-04   AT NODE          5   DOF  2
   INSTANCE: CUBE-1                                                                          
 LARGEST CORRECTION TO DISP.        8.688E-17   AT NODE         54   DOF  3
   INSTANCE: CUBE-1                                                                          
          THE FORCE     EQUILIBRIUM RESPONSE WAS LINEAR IN THIS INCREMENT

 AVERAGE PR. FLUX                   2.566E-18   TIME AVG. PR. FLUX    1.000E-02
 LARGEST RESIDUAL PR. FLUX         -1.067E-15   AT NODE       1185
   INSTANCE: CUBE-1                                                                          
 LARGEST INCREMENT OF VOL. LM.     -1.139E-04   AT NODE        928
   INSTANCE: CUBE-1                                                                          
 LARGEST CORRECTION TO VOL. LM.     1.601E-17   AT NODE         79
   INSTANCE: CUBE-1                                                                          
          THERE IS ZERO PR. FLUX  EVERYWHERE
 

 ***WARNING: THERE IS ZERO PR. FLUX EVERYWHERE IN THE MODEL BASED ON THE 
             DEFAULT CRITERION. PLEASE CHECK THE VALUE OF THE AVERAGE PR. FLUX 
             DURING THE CURRENT ITERATION TO VERIFY THAT THE PR. FLUX IS SMALL 
             ENOUGH TO BE TREATED AS ZERO. IF NOT, PLEASE USE THE SOLUTION 
             CONTROLS TO RESET THE CRITERION FOR ZERO PR. FLUX.
          TIME INCREMENT MAY NOW INCREASE TO    1.709E-03

 ITERATION SUMMARY FOR THE INCREMENT:   1 TOTAL ITERATIONS, OF WHICH
   0 ARE SEVERE DISCONTINUITY ITERATIONS AND  1 ARE EQUILIBRIUM ITERATIONS.

 TIME INCREMENT COMPLETED  1.139E-03,  FRACTION OF STEP COMPLETED  3.317E-03
 STEP TIME COMPLETED       3.317E-03,  TOTAL TIME COMPLETED        3.317E-03


  INCREMENT     9 STARTS. ATTEMPT NUMBER  1, TIME INCREMENT  1.709E-03
 
	REGULARIZED SYMMETRIC DIRECT SPARSE SOLVER RUNNING ON
 	1 HOST:        1 MPI RANK  x 1 THREAD
 	NUMBER OF EQUATIONS:     5820
 	NUMBER OF RHS:           1
 	NUMBER OF FLOPS:         5.704e+08

     CHECK POINT   START OF SOLVER    

     CHECK POINT  END OF SOLVER       

       ELAPSED USER TIME (SEC)      =  0.10000    
       ELAPSED SYSTEM TIME (SEC)    =   0.0000    
       ELAPSED TOTAL CPU TIME (SEC) =  0.10000    
       ELAPSED WALLCLOCK TIME (SEC) =          0

               CONVERGENCE CHECKS FOR EQUILIBRIUM ITERATION     1


 AVERAGE FORCE                      2.382E-03   TIME AVG. FORCE       7.409E-04
 LARGEST RESIDUAL FORCE            -1.123E-16   AT NODE        817   DOF  2
   INSTANCE: CUBE-1                                                                          
 LARGEST INCREMENT OF DISP.        -8.543E-04   AT NODE          5   DOF  2
   INSTANCE: CUBE-1                                                                          
 LARGEST CORRECTION TO DISP.        1.476E-16   AT NODE         48   DOF  2
   INSTANCE: CUBE-1                                                                          
          THE FORCE     EQUILIBRIUM RESPONSE WAS LINEAR IN THIS INCREMENT

 AVERAGE PR. FLUX                   7.399E-18   TIME AVG. PR. FLUX    1.000E-02
 LARGEST RESIDUAL PR. FLUX         -1.937E-15   AT NODE        838
   INSTANCE: CUBE-1                                                                          
 LARGEST INCREMENT OF VOL. LM.     -1.709E-04   AT NODE        101
   INSTANCE: CUBE-1                                                                          
 LARGEST CORRECTION TO VOL. LM.    -4.300E-17   AT NODE        594
   INSTANCE: CUBE-1                                                                          
          THERE IS ZERO PR. FLUX  EVERYWHERE
 

 ***WARNING: THERE IS ZERO PR. FLUX EVERYWHERE IN THE MODEL BASED ON THE 
             DEFAULT CRITERION. PLEASE CHECK THE VALUE OF THE AVERAGE PR. FLUX 
             DURING THE CURRENT ITERATION TO VERIFY THAT THE PR. FLUX IS SMALL 
             ENOUGH TO BE TREATED AS ZERO. IF NOT, PLEASE USE THE SOLUTION 
             CONTROLS TO RESET THE CRITERION FOR ZERO PR. FLUX.
          TIME INCREMENT MAY NOW INCREASE TO    2.563E-03

 ITERATION SUMMARY FOR THE INCREMENT:   1 TOTAL ITERATIONS, OF WHICH
   0 ARE SEVERE DISCONTINUITY ITERATIONS AND  1 ARE EQUILIBRIUM ITERATIONS.

 TIME INCREMENT COMPLETED  1.709E-03,  FRACTION OF STEP COMPLETED  5.026E-03
 STEP TIME COMPLETED       5.026E-03,  TOTAL TIME COMPLETED        5.026E-03


  INCREMENT    10 STARTS. ATTEMPT NUMBER  1, TIME INCREMENT  2.563E-03
 
	REGULARIZED SYMMETRIC DIRECT SPARSE SOLVER RUNNING ON
 	1 HOST:        1 MPI RANK  x 1 THREAD
 	NUMBER OF EQUATIONS:     5820
 	NUMBER OF RHS:           1
 	NUMBER OF FLOPS:         5.704e+08

     CHECK POINT   START OF SOLVER    

     CHECK POINT  END OF SOLVER       

       ELAPSED USER TIME (SEC)      =  0.10000    
       ELAPSED SYSTEM TIME (SEC)    =   0.0000    
       ELAPSED TOTAL CPU TIME (SEC) =  0.10000    
       ELAPSED WALLCLOCK TIME (SEC) =          0

               CONVERGENCE CHECKS FOR EQUILIBRIUM ITERATION     1


 AVERAGE FORCE                      3.596E-03   TIME AVG. FORCE       1.026E-03
 LARGEST RESIDUAL FORCE             2.134E-16   AT NODE        817   DOF  2
   INSTANCE: CUBE-1                                                                          
 LARGEST INCREMENT OF DISP.        -1.281E-03   AT NODE          5   DOF  2
   INSTANCE: CUBE-1                                                                          
 LARGEST CORRECTION TO DISP.       -2.038E-16   AT NODE        538   DOF  3
   INSTANCE: CUBE-1                                                                          
          THE FORCE     EQUILIBRIUM RESPONSE WAS LINEAR IN THIS INCREMENT

 AVERAGE PR. FLUX                   1.186E-17   TIME AVG. PR. FLUX    1.000E-02
 LARGEST RESIDUAL PR. FLUX          2.259E-15   AT NODE       1272
   INSTANCE: CUBE-1                                                                          
 LARGEST INCREMENT OF VOL. LM.     -2.563E-04   AT NODE         49
   INSTANCE: CUBE-1                                                                          
 LARGEST CORRECTION TO VOL. LM.     1.251E-16   AT NODE        594
   INSTANCE: CUBE-1                                                                          
          THERE IS ZERO PR. FLUX  EVERYWHERE
 

 ***WARNING: THERE IS ZERO PR. FLUX EVERYWHERE IN THE MODEL BASED ON THE 
             DEFAULT CRITERION. PLEASE CHECK THE VALUE OF THE AVERAGE PR. FLUX 
             DURING THE CURRENT ITERATION TO VERIFY THAT THE PR. FLUX IS SMALL 
             ENOUGH TO BE TREATED AS ZERO. IF NOT, PLEASE USE THE SOLUTION 
             CONTROLS TO RESET THE CRITERION FOR ZERO PR. FLUX.
          TIME INCREMENT MAY NOW INCREASE TO    3.844E-03

 ITERATION SUMMARY FOR THE INCREMENT:   1 TOTAL ITERATIONS, OF WHICH
   0 ARE SEVERE DISCONTINUITY ITERATIONS AND  1 ARE EQUILIBRIUM ITERATIONS.

 TIME INCREMENT COMPLETED  2.563E-03,  FRACTION OF STEP COMPLETED  7.589E-03
 STEP TIME COMPLETED       7.589E-03,  TOTAL TIME COMPLETED        7.589E-03


  INCREMENT    11 STARTS. ATTEMPT NUMBER  1, TIME INCREMENT  3.844E-03
 
	REGULARIZED SYMMETRIC DIRECT SPARSE SOLVER RUNNING ON
 	1 HOST:        1 MPI RANK  x 1 THREAD
 	NUMBER OF EQUATIONS:     5820
 	NUMBER OF RHS:           1
 	NUMBER OF FLOPS:         5.704e+08

     CHECK POINT   START OF SOLVER    

     CHECK POINT  END OF SOLVER       

       ELAPSED USER TIME (SEC)      =  0.10000    
       ELAPSED SYSTEM TIME (SEC)    =   0.0000    
       ELAPSED TOTAL CPU TIME (SEC) =  0.10000    
       ELAPSED WALLCLOCK TIME (SEC) =          0

               CONVERGENCE CHECKS FOR EQUILIBRIUM ITERATION     1


 AVERAGE FORCE                      5.416E-03   TIME AVG. FORCE       1.426E-03
 LARGEST RESIDUAL FORCE            -2.776E-16   AT NODE        949   DOF  2
   INSTANCE: CUBE-1                                                                          
 LARGEST INCREMENT OF DISP.        -1.922E-03   AT NODE          5   DOF  2
   INSTANCE: CUBE-1                                                                          
 LARGEST CORRECTION TO DISP.       -2.382E-16   AT NODE        391   DOF  2
   INSTANCE: CUBE-1                                                                          
          THE FORCE     EQUILIBRIUM RESPONSE WAS LINEAR IN THIS INCREMENT

 AVERAGE PR. FLUX                   5.899E-17   TIME AVG. PR. FLUX    1.000E-02
 LARGEST RESIDUAL PR. FLUX         -4.179E-15   AT NODE        749
   INSTANCE: CUBE-1                                                                          
 LARGEST INCREMENT OF VOL. LM.     -3.844E-04   AT NODE        530
   INSTANCE: CUBE-1                                                                          
 LARGEST CORRECTION TO VOL. LM.    -1.335E-16   AT NODE       1351
   INSTANCE: CUBE-1                                                                          
          THERE IS ZERO PR. FLUX  EVERYWHERE
 

 ***WARNING: THERE IS ZERO PR. FLUX EVERYWHERE IN THE MODEL BASED ON THE 
             DEFAULT CRITERION. PLEASE CHECK THE VALUE OF THE AVERAGE PR. FLUX 
             DURING THE CURRENT ITERATION TO VERIFY THAT THE PR. FLUX IS SMALL 
             ENOUGH TO BE TREATED AS ZERO. IF NOT, PLEASE USE THE SOLUTION 
             CONTROLS TO RESET THE CRITERION FOR ZERO PR. FLUX.
          TIME INCREMENT MAY NOW INCREASE TO    5.767E-03

 ITERATION SUMMARY FOR THE INCREMENT:   1 TOTAL ITERATIONS, OF WHICH
   0 ARE SEVERE DISCONTINUITY ITERATIONS AND  1 ARE EQUILIBRIUM ITERATIONS.

 TIME INCREMENT COMPLETED  3.844E-03,  FRACTION OF STEP COMPLETED  1.143E-02
 STEP TIME COMPLETED       1.143E-02,  TOTAL TIME COMPLETED        1.143E-02


  INCREMENT    12 STARTS. ATTEMPT NUMBER  1, TIME INCREMENT  5.767E-03
 
	REGULARIZED SYMMETRIC DIRECT SPARSE SOLVER RUNNING ON
 	1 HOST:        1 MPI RANK  x 1 THREAD
 	NUMBER OF EQUATIONS:     5820
 	NUMBER OF RHS:           1
 	NUMBER OF FLOPS:         5.704e+08

     CHECK POINT   START OF SOLVER    

     CHECK POINT  END OF SOLVER       

       ELAPSED USER TIME (SEC)      =  0.10000    
       ELAPSED SYSTEM TIME (SEC)    =   0.0000    
       ELAPSED TOTAL CPU TIME (SEC) =  0.10000    
       ELAPSED WALLCLOCK TIME (SEC) =          0

               CONVERGENCE CHECKS FOR EQUILIBRIUM ITERATION     1


 AVERAGE FORCE                      8.145E-03   TIME AVG. FORCE       1.985E-03
 LARGEST RESIDUAL FORCE            -3.903E-16   AT NODE       1354   DOF  2
   INSTANCE: CUBE-1                                                                          
 LARGEST INCREMENT OF DISP.        -2.883E-03   AT NODE          5   DOF  2
   INSTANCE: CUBE-1                                                                          
 LARGEST CORRECTION TO DISP.       -2.623E-16   AT NODE        115   DOF  1
   INSTANCE: CUBE-1                                                                          
          THE FORCE     EQUILIBRIUM RESPONSE WAS LINEAR IN THIS INCREMENT

 AVERAGE PR. FLUX                   7.096E-17   TIME AVG. PR. FLUX    1.000E-02
 LARGEST RESIDUAL PR. FLUX          4.703E-15   AT NODE        641
   INSTANCE: CUBE-1                                                                          
 LARGEST INCREMENT OF VOL. LM.     -5.767E-04   AT NODE        378
   INSTANCE: CUBE-1                                                                          
 LARGEST CORRECTION TO VOL. LM.     1.617E-16   AT NODE        530
   INSTANCE: CUBE-1                                                                          
          THERE IS ZERO PR. FLUX  EVERYWHERE
 

 ***WARNING: THERE IS ZERO PR. FLUX EVERYWHERE IN THE MODEL BASED ON THE 
             DEFAULT CRITERION. PLEASE CHECK THE VALUE OF THE AVERAGE PR. FLUX 
             DURING THE CURRENT ITERATION TO VERIFY THAT THE PR. FLUX IS SMALL 
             ENOUGH TO BE TREATED AS ZERO. IF NOT, PLEASE USE THE SOLUTION 
             CONTROLS TO RESET THE CRITERION FOR ZERO PR. FLUX.
          TIME INCREMENT MAY NOW INCREASE TO    8.650E-03

 ITERATION SUMMARY FOR THE INCREMENT:   1 TOTAL ITERATIONS, OF WHICH
   0 ARE SEVERE DISCONTINUITY ITERATIONS AND  1 ARE EQUILIBRIUM ITERATIONS.

 TIME INCREMENT COMPLETED  5.767E-03,  FRACTION OF STEP COMPLETED  1.720E-02
 STEP TIME COMPLETED       1.720E-02,  TOTAL TIME COMPLETED        1.720E-02


  INCREMENT    13 STARTS. ATTEMPT NUMBER  1, TIME INCREMENT  8.650E-03
 
	REGULARIZED SYMMETRIC DIRECT SPARSE SOLVER RUNNING ON
 	1 HOST:        1 MPI RANK  x 1 THREAD
 	NUMBER OF EQUATIONS:     5820
 	NUMBER OF RHS:           1
 	NUMBER OF FLOPS:         5.704e+08

     CHECK POINT   START OF SOLVER    

     CHECK POINT  END OF SOLVER       

       ELAPSED USER TIME (SEC)      =  0.10000    
       ELAPSED SYSTEM TIME (SEC)    =   0.0000    
       ELAPSED TOTAL CPU TIME (SEC) =  0.10000    
       ELAPSED WALLCLOCK TIME (SEC) =          0

               CONVERGENCE CHECKS FOR EQUILIBRIUM ITERATION     1


 AVERAGE FORCE                      1.223E-02   TIME AVG. FORCE       2.774E-03
 LARGEST RESIDUAL FORCE            -6.392E-16   AT NODE       1034   DOF  2
   INSTANCE: CUBE-1                                                                          
 LARGEST INCREMENT OF DISP.        -4.325E-03   AT NODE          5   DOF  2
   INSTANCE: CUBE-1                                                                          
 LARGEST CORRECTION TO DISP.        2.592E-16   AT NODE        438   DOF  3
   INSTANCE: CUBE-1                                                                          
          THE FORCE     EQUILIBRIUM RESPONSE WAS LINEAR IN THIS INCREMENT

 AVERAGE PR. FLUX                   8.180E-17   TIME AVG. PR. FLUX    1.000E-02
 LARGEST RESIDUAL PR. FLUX         -4.114E-15   AT NODE        708
   INSTANCE: CUBE-1                                                                          
 LARGEST INCREMENT OF VOL. LM.     -8.650E-04   AT NODE        558
   INSTANCE: CUBE-1                                                                          
 LARGEST CORRECTION TO VOL. LM.    -1.757E-16   AT NODE        100
   INSTANCE: CUBE-1                                                                          
          THERE IS ZERO PR. FLUX  EVERYWHERE
 

 ***WARNING: THERE IS ZERO PR. FLUX EVERYWHERE IN THE MODEL BASED ON THE 
             DEFAULT CRITERION. PLEASE CHECK THE VALUE OF THE AVERAGE PR. FLUX 
             DURING THE CURRENT ITERATION TO VERIFY THAT THE PR. FLUX IS SMALL 
             ENOUGH TO BE TREATED AS ZERO. IF NOT, PLEASE USE THE SOLUTION 
             CONTROLS TO RESET THE CRITERION FOR ZERO PR. FLUX.
          TIME INCREMENT MAY NOW INCREASE TO    1.000E-02

 ITERATION SUMMARY FOR THE INCREMENT:   1 TOTAL ITERATIONS, OF WHICH
   0 ARE SEVERE DISCONTINUITY ITERATIONS AND  1 ARE EQUILIBRIUM ITERATIONS.

 TIME INCREMENT COMPLETED  8.650E-03,  FRACTION OF STEP COMPLETED  2.585E-02
 STEP TIME COMPLETED       2.585E-02,  TOTAL TIME COMPLETED        2.585E-02


  INCREMENT    14 STARTS. ATTEMPT NUMBER  1, TIME INCREMENT  1.000E-02
 
	REGULARIZED SYMMETRIC DIRECT SPARSE SOLVER RUNNING ON
 	1 HOST:        1 MPI RANK  x 1 THREAD
 	NUMBER OF EQUATIONS:     5820
 	NUMBER OF RHS:           1
 	NUMBER OF FLOPS:         5.704e+08

     CHECK POINT   START OF SOLVER    

     CHECK POINT  END OF SOLVER       

       ELAPSED USER TIME (SEC)      =   0.0000    
       ELAPSED SYSTEM TIME (SEC)    =   0.0000    
       ELAPSED TOTAL CPU TIME (SEC) =   0.0000    
       ELAPSED WALLCLOCK TIME (SEC) =          0

               CONVERGENCE CHECKS FOR EQUILIBRIUM ITERATION     1


 AVERAGE FORCE                      1.696E-02   TIME AVG. FORCE       3.787E-03
 LARGEST RESIDUAL FORCE            -1.027E-15   AT NODE        989   DOF  2
   INSTANCE: CUBE-1                                                                          
 LARGEST INCREMENT OF DISP.        -5.000E-03   AT NODE          5   DOF  2
   INSTANCE: CUBE-1                                                                          
 LARGEST CORRECTION TO DISP.       -3.085E-16   AT NODE         59   DOF  3
   INSTANCE: CUBE-1                                                                          
          THE FORCE     EQUILIBRIUM RESPONSE WAS LINEAR IN THIS INCREMENT

 AVERAGE PR. FLUX                   6.655E-17   TIME AVG. PR. FLUX    1.000E-02
 LARGEST RESIDUAL PR. FLUX          3.410E-15   AT NODE        610
   INSTANCE: CUBE-1                                                                          
 LARGEST INCREMENT OF VOL. LM.     -1.000E-03   AT NODE        107
   INSTANCE: CUBE-1                                                                          
 LARGEST CORRECTION TO VOL. LM.     1.352E-16   AT NODE        558
   INSTANCE: CUBE-1                                                                          
          THERE IS ZERO PR. FLUX  EVERYWHERE
 

 ***WARNING: THERE IS ZERO PR. FLUX EVERYWHERE IN THE MODEL BASED ON THE 
             DEFAULT CRITERION. PLEASE CHECK THE VALUE OF THE AVERAGE PR. FLUX 
             DURING THE CURRENT ITERATION TO VERIFY THAT THE PR. FLUX IS SMALL 
             ENOUGH TO BE TREATED AS ZERO. IF NOT, PLEASE USE THE SOLUTION 
             CONTROLS TO RESET THE CRITERION FOR ZERO PR. FLUX.

 ITERATION SUMMARY FOR THE INCREMENT:   1 TOTAL ITERATIONS, OF WHICH
   0 ARE SEVERE DISCONTINUITY ITERATIONS AND  1 ARE EQUILIBRIUM ITERATIONS.

 TIME INCREMENT COMPLETED  1.000E-02,  FRACTION OF STEP COMPLETED  3.585E-02
 STEP TIME COMPLETED       3.585E-02,  TOTAL TIME COMPLETED        3.585E-02


  INCREMENT    15 STARTS. ATTEMPT NUMBER  1, TIME INCREMENT  1.000E-02
 
	REGULARIZED SYMMETRIC DIRECT SPARSE SOLVER RUNNING ON
 	1 HOST:        1 MPI RANK  x 1 THREAD
 	NUMBER OF EQUATIONS:     5820
 	NUMBER OF RHS:           1
 	NUMBER OF FLOPS:         5.704e+08

     CHECK POINT   START OF SOLVER    

     CHECK POINT  END OF SOLVER       

       ELAPSED USER TIME (SEC)      =  0.10000    
       ELAPSED SYSTEM TIME (SEC)    =   0.0000    
       ELAPSED TOTAL CPU TIME (SEC) =  0.10000    
       ELAPSED WALLCLOCK TIME (SEC) =          0

               CONVERGENCE CHECKS FOR EQUILIBRIUM ITERATION     1


 AVERAGE FORCE                      2.167E-02   TIME AVG. FORCE       4.979E-03
 LARGEST RESIDUAL FORCE            -9.452E-16   AT NODE       1295   DOF  2
   INSTANCE: CUBE-1                                                                          
 LARGEST INCREMENT OF DISP.        -5.000E-03   AT NODE          5   DOF  2
   INSTANCE: CUBE-1                                                                          
 LARGEST CORRECTION TO DISP.       -3.335E-16   AT NODE         58   DOF  3
   INSTANCE: CUBE-1                                                                          
          THE FORCE     EQUILIBRIUM RESPONSE WAS LINEAR IN THIS INCREMENT

 AVERAGE PR. FLUX                   1.239E-16   TIME AVG. PR. FLUX    1.000E-02
 LARGEST RESIDUAL PR. FLUX         -4.341E-15   AT NODE        889
   INSTANCE: CUBE-1                                                                          
 LARGEST INCREMENT OF VOL. LM.     -1.000E-03   AT NODE          5
   INSTANCE: CUBE-1                                                                          
 LARGEST CORRECTION TO VOL. LM.    -1.373E-16   AT NODE         73
   INSTANCE: CUBE-1                                                                          
          THERE IS ZERO PR. FLUX  EVERYWHERE
 

 ***WARNING: THERE IS ZERO PR. FLUX EVERYWHERE IN THE MODEL BASED ON THE 
             DEFAULT CRITERION. PLEASE CHECK THE VALUE OF THE AVERAGE PR. FLUX 
             DURING THE CURRENT ITERATION TO VERIFY THAT THE PR. FLUX IS SMALL 
             ENOUGH TO BE TREATED AS ZERO. IF NOT, PLEASE USE THE SOLUTION 
             CONTROLS TO RESET THE CRITERION FOR ZERO PR. FLUX.

 ITERATION SUMMARY FOR THE INCREMENT:   1 TOTAL ITERATIONS, OF WHICH
   0 ARE SEVERE DISCONTINUITY ITERATIONS AND  1 ARE EQUILIBRIUM ITERATIONS.

 TIME INCREMENT COMPLETED  1.000E-02,  FRACTION OF STEP COMPLETED  4.585E-02
 STEP TIME COMPLETED       4.585E-02,  TOTAL TIME COMPLETED        4.585E-02


  INCREMENT    16 STARTS. ATTEMPT NUMBER  1, TIME INCREMENT  1.000E-02
 
	REGULARIZED SYMMETRIC DIRECT SPARSE SOLVER RUNNING ON
 	1 HOST:        1 MPI RANK  x 1 THREAD
 	NUMBER OF EQUATIONS:     5820
 	NUMBER OF RHS:           1
 	NUMBER OF FLOPS:         5.704e+08

     CHECK POINT   START OF SOLVER    

     CHECK POINT  END OF SOLVER       

       ELAPSED USER TIME (SEC)      =  0.10000    
       ELAPSED SYSTEM TIME (SEC)    =   0.0000    
       ELAPSED TOTAL CPU TIME (SEC) =  0.10000    
       ELAPSED WALLCLOCK TIME (SEC) =          0

               CONVERGENCE CHECKS FOR EQUILIBRIUM ITERATION     1


 AVERAGE FORCE                      2.638E-02   TIME AVG. FORCE       6.317E-03
 LARGEST RESIDUAL FORCE             1.277E-15   AT NODE        949   DOF  2
   INSTANCE: CUBE-1                                                                          
 LARGEST INCREMENT OF DISP.        -5.000E-03   AT NODE          5   DOF  2
   INSTANCE: CUBE-1                                                                          
 LARGEST CORRECTION TO DISP.       -5.087E-16   AT NODE         74   DOF  1
   INSTANCE: CUBE-1                                                                          
          THE FORCE     EQUILIBRIUM RESPONSE WAS LINEAR IN THIS INCREMENT

 AVERAGE PR. FLUX                   1.092E-16   TIME AVG. PR. FLUX    1.000E-02
 LARGEST RESIDUAL PR. FLUX          3.639E-15   AT NODE        622
   INSTANCE: CUBE-1                                                                          
 LARGEST INCREMENT OF VOL. LM.     -1.000E-03   AT NODE        113
   INSTANCE: CUBE-1                                                                          
 LARGEST CORRECTION TO VOL. LM.     1.645E-16   AT NODE         73
   INSTANCE: CUBE-1                                                                          
          THERE IS ZERO PR. FLUX  EVERYWHERE
 

 ***WARNING: THERE IS ZERO PR. FLUX EVERYWHERE IN THE MODEL BASED ON THE 
             DEFAULT CRITERION. PLEASE CHECK THE VALUE OF THE AVERAGE PR. FLUX 
             DURING THE CURRENT ITERATION TO VERIFY THAT THE PR. FLUX IS SMALL 
             ENOUGH TO BE TREATED AS ZERO. IF NOT, PLEASE USE THE SOLUTION 
             CONTROLS TO RESET THE CRITERION FOR ZERO PR. FLUX.

 ITERATION SUMMARY FOR THE INCREMENT:   1 TOTAL ITERATIONS, OF WHICH
   0 ARE SEVERE DISCONTINUITY ITERATIONS AND  1 ARE EQUILIBRIUM ITERATIONS.

 TIME INCREMENT COMPLETED  1.000E-02,  FRACTION OF STEP COMPLETED  5.585E-02
 STEP TIME COMPLETED       5.585E-02,  TOTAL TIME COMPLETED        5.585E-02


  INCREMENT    17 STARTS. ATTEMPT NUMBER  1, TIME INCREMENT  1.000E-02
 
	REGULARIZED SYMMETRIC DIRECT SPARSE SOLVER RUNNING ON
 	1 HOST:        1 MPI RANK  x 1 THREAD
 	NUMBER OF EQUATIONS:     5820
 	NUMBER OF RHS:           1
 	NUMBER OF FLOPS:         5.704e+08

     CHECK POINT   START OF SOLVER    

     CHECK POINT  END OF SOLVER       

       ELAPSED USER TIME (SEC)      =  0.10000    
       ELAPSED SYSTEM TIME (SEC)    =   0.0000    
       ELAPSED TOTAL CPU TIME (SEC) =  0.10000    
       ELAPSED WALLCLOCK TIME (SEC) =          0

               CONVERGENCE CHECKS FOR EQUILIBRIUM ITERATION     1


 AVERAGE FORCE                      3.108E-02   TIME AVG. FORCE       7.773E-03
 LARGEST RESIDUAL FORCE             1.447E-15   AT NODE       1397   DOF  2
   INSTANCE: CUBE-1                                                                          
 LARGEST INCREMENT OF DISP.        -5.000E-03   AT NODE          5   DOF  2
   INSTANCE: CUBE-1                                                                          
 LARGEST CORRECTION TO DISP.       -4.548E-16   AT NODE        103   DOF  3
   INSTANCE: CUBE-1                                                                          
          THE FORCE     EQUILIBRIUM RESPONSE WAS LINEAR IN THIS INCREMENT

 AVERAGE PR. FLUX                   1.789E-16   TIME AVG. PR. FLUX    1.000E-02
 LARGEST RESIDUAL PR. FLUX         -5.361E-15   AT NODE        641
   INSTANCE: CUBE-1                                                                          
 LARGEST INCREMENT OF VOL. LM.     -1.000E-03   AT NODE         58
   INSTANCE: CUBE-1                                                                          
 LARGEST CORRECTION TO VOL. LM.    -2.674E-16   AT NODE         58
   INSTANCE: CUBE-1                                                                          
          THERE IS ZERO PR. FLUX  EVERYWHERE
 

 ***WARNING: THERE IS ZERO PR. FLUX EVERYWHERE IN THE MODEL BASED ON THE 
             DEFAULT CRITERION. PLEASE CHECK THE VALUE OF THE AVERAGE PR. FLUX 
             DURING THE CURRENT ITERATION TO VERIFY THAT THE PR. FLUX IS SMALL 
             ENOUGH TO BE TREATED AS ZERO. IF NOT, PLEASE USE THE SOLUTION 
             CONTROLS TO RESET THE CRITERION FOR ZERO PR. FLUX.

 ITERATION SUMMARY FOR THE INCREMENT:   1 TOTAL ITERATIONS, OF WHICH
   0 ARE SEVERE DISCONTINUITY ITERATIONS AND  1 ARE EQUILIBRIUM ITERATIONS.

 TIME INCREMENT COMPLETED  1.000E-02,  FRACTION OF STEP COMPLETED  6.585E-02
 STEP TIME COMPLETED       6.585E-02,  TOTAL TIME COMPLETED        6.585E-02


  INCREMENT    18 STARTS. ATTEMPT NUMBER  1, TIME INCREMENT  1.000E-02
 
	REGULARIZED SYMMETRIC DIRECT SPARSE SOLVER RUNNING ON
 	1 HOST:        1 MPI RANK  x 1 THREAD
 	NUMBER OF EQUATIONS:     5820
 	NUMBER OF RHS:           1
 	NUMBER OF FLOPS:         5.704e+08

     CHECK POINT   START OF SOLVER    

     CHECK POINT  END OF SOLVER       

       ELAPSED USER TIME (SEC)      =  0.10000    
       ELAPSED SYSTEM TIME (SEC)    =  0.10000    
       ELAPSED TOTAL CPU TIME (SEC) =  0.20000    
       ELAPSED WALLCLOCK TIME (SEC) =          0

               CONVERGENCE CHECKS FOR EQUILIBRIUM ITERATION     1


 AVERAGE FORCE                      3.578E-02   TIME AVG. FORCE       9.329E-03
 LARGEST RESIDUAL FORCE            -1.658E-15   AT NODE       1044   DOF  2
   INSTANCE: CUBE-1                                                                          
 LARGEST INCREMENT OF DISP.        -5.000E-03   AT NODE          5   DOF  2
   INSTANCE: CUBE-1                                                                          
 LARGEST CORRECTION TO DISP.        6.558E-16   AT NODE         58   DOF  3
   INSTANCE: CUBE-1                                                                          
          THE FORCE     EQUILIBRIUM RESPONSE WAS LINEAR IN THIS INCREMENT

 AVERAGE PR. FLUX                   1.557E-16   TIME AVG. PR. FLUX    1.000E-02
 LARGEST RESIDUAL PR. FLUX          3.055E-15   AT NODE        814
   INSTANCE: CUBE-1                                                                          
 LARGEST INCREMENT OF VOL. LM.     -1.000E-03   AT NODE        542
   INSTANCE: CUBE-1                                                                          
 LARGEST CORRECTION TO VOL. LM.     3.083E-16   AT NODE         58
   INSTANCE: CUBE-1                                                                          
          THERE IS ZERO PR. FLUX  EVERYWHERE
 

 ***WARNING: THERE IS ZERO PR. FLUX EVERYWHERE IN THE MODEL BASED ON THE 
             DEFAULT CRITERION. PLEASE CHECK THE VALUE OF THE AVERAGE PR. FLUX 
             DURING THE CURRENT ITERATION TO VERIFY THAT THE PR. FLUX IS SMALL 
             ENOUGH TO BE TREATED AS ZERO. IF NOT, PLEASE USE THE SOLUTION 
             CONTROLS TO RESET THE CRITERION FOR ZERO PR. FLUX.

 ITERATION SUMMARY FOR THE INCREMENT:   1 TOTAL ITERATIONS, OF WHICH
   0 ARE SEVERE DISCONTINUITY ITERATIONS AND  1 ARE EQUILIBRIUM ITERATIONS.

 TIME INCREMENT COMPLETED  1.000E-02,  FRACTION OF STEP COMPLETED  7.585E-02
 STEP TIME COMPLETED       7.585E-02,  TOTAL TIME COMPLETED        7.585E-02


  INCREMENT    19 STARTS. ATTEMPT NUMBER  1, TIME INCREMENT  1.000E-02
 
	REGULARIZED SYMMETRIC DIRECT SPARSE SOLVER RUNNING ON
 	1 HOST:        1 MPI RANK  x 1 THREAD
 	NUMBER OF EQUATIONS:     5820
 	NUMBER OF RHS:           1
 	NUMBER OF FLOPS:         5.704e+08

     CHECK POINT   START OF SOLVER    

     CHECK POINT  END OF SOLVER       

       ELAPSED USER TIME (SEC)      =   0.0000    
       ELAPSED SYSTEM TIME (SEC)    =   0.0000    
       ELAPSED TOTAL CPU TIME (SEC) =   0.0000    
       ELAPSED WALLCLOCK TIME (SEC) =          0

               CONVERGENCE CHECKS FOR EQUILIBRIUM ITERATION     1


 AVERAGE FORCE                      4.047E-02   TIME AVG. FORCE       1.097E-02
 LARGEST RESIDUAL FORCE            -2.200E-15   AT NODE       1042   DOF  2
   INSTANCE: CUBE-1                                                                          
 LARGEST INCREMENT OF DISP.        -5.000E-03   AT NODE          5   DOF  2
   INSTANCE: CUBE-1                                                                          
 LARGEST CORRECTION TO DISP.       -6.808E-16   AT NODE        115   DOF  1
   INSTANCE: CUBE-1                                                                          
          THE FORCE     EQUILIBRIUM RESPONSE WAS LINEAR IN THIS INCREMENT

 AVERAGE PR. FLUX                   1.949E-16   TIME AVG. PR. FLUX    1.000E-02
 LARGEST RESIDUAL PR. FLUX         -3.110E-15   AT NODE        738
   INSTANCE: CUBE-1                                                                          
 LARGEST INCREMENT OF VOL. LM.     -1.000E-03   AT NODE         55
   INSTANCE: CUBE-1                                                                          
 LARGEST CORRECTION TO VOL. LM.    -2.804E-16   AT NODE          8
   INSTANCE: CUBE-1                                                                          
          THERE IS ZERO PR. FLUX  EVERYWHERE
 

 ***WARNING: THERE IS ZERO PR. FLUX EVERYWHERE IN THE MODEL BASED ON THE 
             DEFAULT CRITERION. PLEASE CHECK THE VALUE OF THE AVERAGE PR. FLUX 
             DURING THE CURRENT ITERATION TO VERIFY THAT THE PR. FLUX IS SMALL 
             ENOUGH TO BE TREATED AS ZERO. IF NOT, PLEASE USE THE SOLUTION 
             CONTROLS TO RESET THE CRITERION FOR ZERO PR. FLUX.

 ITERATION SUMMARY FOR THE INCREMENT:   1 TOTAL ITERATIONS, OF WHICH
   0 ARE SEVERE DISCONTINUITY ITERATIONS AND  1 ARE EQUILIBRIUM ITERATIONS.

 TIME INCREMENT COMPLETED  1.000E-02,  FRACTION OF STEP COMPLETED  8.585E-02
 STEP TIME COMPLETED       8.585E-02,  TOTAL TIME COMPLETED        8.585E-02


  INCREMENT    20 STARTS. ATTEMPT NUMBER  1, TIME INCREMENT  1.000E-02
 
	REGULARIZED SYMMETRIC DIRECT SPARSE SOLVER RUNNING ON
 	1 HOST:        1 MPI RANK  x 1 THREAD
 	NUMBER OF EQUATIONS:     5820
 	NUMBER OF RHS:           1
 	NUMBER OF FLOPS:         5.704e+08

     CHECK POINT   START OF SOLVER    

     CHECK POINT  END OF SOLVER       

       ELAPSED USER TIME (SEC)      =  0.10000    
       ELAPSED SYSTEM TIME (SEC)    =   0.0000    
       ELAPSED TOTAL CPU TIME (SEC) =  0.10000    
       ELAPSED WALLCLOCK TIME (SEC) =          0

               CONVERGENCE CHECKS FOR EQUILIBRIUM ITERATION     1


 AVERAGE FORCE                      4.515E-02   TIME AVG. FORCE       1.268E-02
 LARGEST RESIDUAL FORCE            -1.901E-15   AT NODE        949   DOF  2
   INSTANCE: CUBE-1                                                                          
 LARGEST INCREMENT OF DISP.        -5.000E-03   AT NODE          5   DOF  2
   INSTANCE: CUBE-1                                                                          
 LARGEST CORRECTION TO DISP.        7.957E-16   AT NODE        115   DOF  1
   INSTANCE: CUBE-1                                                                          
          THE FORCE     EQUILIBRIUM RESPONSE WAS LINEAR IN THIS INCREMENT

 AVERAGE PR. FLUX                   2.327E-16   TIME AVG. PR. FLUX    1.000E-02
 LARGEST RESIDUAL PR. FLUX          4.959E-15   AT NODE        748
   INSTANCE: CUBE-1                                                                          
 LARGEST INCREMENT OF VOL. LM.     -1.000E-03   AT NODE        105
   INSTANCE: CUBE-1                                                                          
 LARGEST CORRECTION TO VOL. LM.    -2.343E-16   AT NODE        101
   INSTANCE: CUBE-1                                                                          
          THERE IS ZERO PR. FLUX  EVERYWHERE
 

 ***WARNING: THERE IS ZERO PR. FLUX EVERYWHERE IN THE MODEL BASED ON THE 
             DEFAULT CRITERION. PLEASE CHECK THE VALUE OF THE AVERAGE PR. FLUX 
             DURING THE CURRENT ITERATION TO VERIFY THAT THE PR. FLUX IS SMALL 
             ENOUGH TO BE TREATED AS ZERO. IF NOT, PLEASE USE THE SOLUTION 
             CONTROLS TO RESET THE CRITERION FOR ZERO PR. FLUX.

 ITERATION SUMMARY FOR THE INCREMENT:   1 TOTAL ITERATIONS, OF WHICH
   0 ARE SEVERE DISCONTINUITY ITERATIONS AND  1 ARE EQUILIBRIUM ITERATIONS.

 TIME INCREMENT COMPLETED  1.000E-02,  FRACTION OF STEP COMPLETED  9.585E-02
 STEP TIME COMPLETED       9.585E-02,  TOTAL TIME COMPLETED        9.585E-02


  INCREMENT    21 STARTS. ATTEMPT NUMBER  1, TIME INCREMENT  1.000E-02
 
	REGULARIZED SYMMETRIC DIRECT SPARSE SOLVER RUNNING ON
 	1 HOST:        1 MPI RANK  x 1 THREAD
 	NUMBER OF EQUATIONS:     5820
 	NUMBER OF RHS:           1
 	NUMBER OF FLOPS:         5.704e+08

     CHECK POINT   START OF SOLVER    

     CHECK POINT  END OF SOLVER       

       ELAPSED USER TIME (SEC)      =  0.10000    
       ELAPSED SYSTEM TIME (SEC)    =   0.0000    
       ELAPSED TOTAL CPU TIME (SEC) =  0.10000    
       ELAPSED WALLCLOCK TIME (SEC) =          0

               CONVERGENCE CHECKS FOR EQUILIBRIUM ITERATION     1


 AVERAGE FORCE                      4.983E-02   TIME AVG. FORCE       1.445E-02
 LARGEST RESIDUAL FORCE             2.831E-15   AT NODE       1013   DOF  2
   INSTANCE: CUBE-1                                                                          
 LARGEST INCREMENT OF DISP.        -5.000E-03   AT NODE          5   DOF  2
   INSTANCE: CUBE-1                                                                          
 LARGEST CORRECTION TO DISP.        1.077E-15   AT NODE        109   DOF  1
   INSTANCE: CUBE-1                                                                          
          THE FORCE     EQUILIBRIUM RESPONSE WAS LINEAR IN THIS INCREMENT

 AVERAGE PR. FLUX                   2.687E-16   TIME AVG. PR. FLUX    1.000E-02
 LARGEST RESIDUAL PR. FLUX         -2.468E-15   AT NODE       1010
   INSTANCE: CUBE-1                                                                          
 LARGEST INCREMENT OF VOL. LM.     -1.000E-03   AT NODE        104
   INSTANCE: CUBE-1                                                                          
 LARGEST CORRECTION TO VOL. LM.     3.702E-16   AT NODE        105
   INSTANCE: CUBE-1                                                                          
          THERE IS ZERO PR. FLUX  EVERYWHERE
 

 ***WARNING: THERE IS ZERO PR. FLUX EVERYWHERE IN THE MODEL BASED ON THE 
             DEFAULT CRITERION. PLEASE CHECK THE VALUE OF THE AVERAGE PR. FLUX 
             DURING THE CURRENT ITERATION TO VERIFY THAT THE PR. FLUX IS SMALL 
             ENOUGH TO BE TREATED AS ZERO. IF NOT, PLEASE USE THE SOLUTION 
             CONTROLS TO RESET THE CRITERION FOR ZERO PR. FLUX.

 ITERATION SUMMARY FOR THE INCREMENT:   1 TOTAL ITERATIONS, OF WHICH
   0 ARE SEVERE DISCONTINUITY ITERATIONS AND  1 ARE EQUILIBRIUM ITERATIONS.

 TIME INCREMENT COMPLETED  1.000E-02,  FRACTION OF STEP COMPLETED  0.106    
 STEP TIME COMPLETED       0.106    ,  TOTAL TIME COMPLETED        0.106    


  INCREMENT    22 STARTS. ATTEMPT NUMBER  1, TIME INCREMENT  1.000E-02
 
	REGULARIZED SYMMETRIC DIRECT SPARSE SOLVER RUNNING ON
 	1 HOST:        1 MPI RANK  x 1 THREAD
 	NUMBER OF EQUATIONS:     5820
 	NUMBER OF RHS:           1
 	NUMBER OF FLOPS:         5.704e+08

     CHECK POINT   START OF SOLVER    

     CHECK POINT  END OF SOLVER       

       ELAPSED USER TIME (SEC)      =   0.0000    
       ELAPSED SYSTEM TIME (SEC)    =   0.0000    
       ELAPSED TOTAL CPU TIME (SEC) =   0.0000    
       ELAPSED WALLCLOCK TIME (SEC) =          0

               CONVERGENCE CHECKS FOR EQUILIBRIUM ITERATION     1


 AVERAGE FORCE                      5.450E-02   TIME AVG. FORCE       1.627E-02
 LARGEST RESIDUAL FORCE            -2.720E-15   AT NODE       1157   DOF  2
   INSTANCE: CUBE-1                                                                          
 LARGEST INCREMENT OF DISP.        -5.000E-03   AT NODE          5   DOF  2
   INSTANCE: CUBE-1                                                                          
 LARGEST CORRECTION TO DISP.       -9.519E-16   AT NODE        109   DOF  1
   INSTANCE: CUBE-1                                                                          
          THE FORCE     EQUILIBRIUM RESPONSE WAS LINEAR IN THIS INCREMENT

 AVERAGE PR. FLUX                   2.974E-16   TIME AVG. PR. FLUX    1.000E-02
 LARGEST RESIDUAL PR. FLUX          2.657E-15   AT NODE       1350
   INSTANCE: CUBE-1                                                                          
 LARGEST INCREMENT OF VOL. LM.     -1.000E-03   AT NODE          5
   INSTANCE: CUBE-1                                                                          
 LARGEST CORRECTION TO VOL. LM.    -3.273E-16   AT NODE       1104
   INSTANCE: CUBE-1                                                                          
          THERE IS ZERO PR. FLUX  EVERYWHERE
 

 ***WARNING: THERE IS ZERO PR. FLUX EVERYWHERE IN THE MODEL BASED ON THE 
             DEFAULT CRITERION. PLEASE CHECK THE VALUE OF THE AVERAGE PR. FLUX 
             DURING THE CURRENT ITERATION TO VERIFY THAT THE PR. FLUX IS SMALL 
             ENOUGH TO BE TREATED AS ZERO. IF NOT, PLEASE USE THE SOLUTION 
             CONTROLS TO RESET THE CRITERION FOR ZERO PR. FLUX.

 ITERATION SUMMARY FOR THE INCREMENT:   1 TOTAL ITERATIONS, OF WHICH
   0 ARE SEVERE DISCONTINUITY ITERATIONS AND  1 ARE EQUILIBRIUM ITERATIONS.

 TIME INCREMENT COMPLETED  1.000E-02,  FRACTION OF STEP COMPLETED  0.116    
 STEP TIME COMPLETED       0.116    ,  TOTAL TIME COMPLETED        0.116    


  INCREMENT    23 STARTS. ATTEMPT NUMBER  1, TIME INCREMENT  1.000E-02
 
	REGULARIZED SYMMETRIC DIRECT SPARSE SOLVER RUNNING ON
 	1 HOST:        1 MPI RANK  x 1 THREAD
 	NUMBER OF EQUATIONS:     5820
 	NUMBER OF RHS:           1
 	NUMBER OF FLOPS:         5.704e+08

     CHECK POINT   START OF SOLVER    

     CHECK POINT  END OF SOLVER       

       ELAPSED USER TIME (SEC)      =  0.10000    
       ELAPSED SYSTEM TIME (SEC)    =   0.0000    
       ELAPSED TOTAL CPU TIME (SEC) =  0.10000    
       ELAPSED WALLCLOCK TIME (SEC) =          0

               CONVERGENCE CHECKS FOR EQUILIBRIUM ITERATION     1


 AVERAGE FORCE                      5.917E-02   TIME AVG. FORCE       1.813E-02
 LARGEST RESIDUAL FORCE             2.720E-15   AT NODE       1194   DOF  2
   INSTANCE: CUBE-1                                                                          
 LARGEST INCREMENT OF DISP.        -5.000E-03   AT NODE          5   DOF  2
   INSTANCE: CUBE-1                                                                          
 LARGEST CORRECTION TO DISP.       -1.412E-15   AT NODE        446   DOF  2
   INSTANCE: CUBE-1                                                                          
          THE FORCE     EQUILIBRIUM RESPONSE WAS LINEAR IN THIS INCREMENT

 AVERAGE PR. FLUX                   3.301E-16   TIME AVG. PR. FLUX    1.000E-02
 LARGEST RESIDUAL PR. FLUX         -3.276E-15   AT NODE        637
   INSTANCE: CUBE-1                                                                          
 LARGEST INCREMENT OF VOL. LM.     -1.000E-03   AT NODE         58
   INSTANCE: CUBE-1                                                                          
 LARGEST CORRECTION TO VOL. LM.    -3.958E-16   AT NODE         58
   INSTANCE: CUBE-1                                                                          
          THERE IS ZERO PR. FLUX  EVERYWHERE
 

 ***WARNING: THERE IS ZERO PR. FLUX EVERYWHERE IN THE MODEL BASED ON THE 
             DEFAULT CRITERION. PLEASE CHECK THE VALUE OF THE AVERAGE PR. FLUX 
             DURING THE CURRENT ITERATION TO VERIFY THAT THE PR. FLUX IS SMALL 
             ENOUGH TO BE TREATED AS ZERO. IF NOT, PLEASE USE THE SOLUTION 
             CONTROLS TO RESET THE CRITERION FOR ZERO PR. FLUX.

 ITERATION SUMMARY FOR THE INCREMENT:   1 TOTAL ITERATIONS, OF WHICH
   0 ARE SEVERE DISCONTINUITY ITERATIONS AND  1 ARE EQUILIBRIUM ITERATIONS.

 TIME INCREMENT COMPLETED  1.000E-02,  FRACTION OF STEP COMPLETED  0.126    
 STEP TIME COMPLETED       0.126    ,  TOTAL TIME COMPLETED        0.126    


  INCREMENT    24 STARTS. ATTEMPT NUMBER  1, TIME INCREMENT  1.000E-02
 
	REGULARIZED SYMMETRIC DIRECT SPARSE SOLVER RUNNING ON
 	1 HOST:        1 MPI RANK  x 1 THREAD
 	NUMBER OF EQUATIONS:     5820
 	NUMBER OF RHS:           1
 	NUMBER OF FLOPS:         5.704e+08

     CHECK POINT   START OF SOLVER    

     CHECK POINT  END OF SOLVER       

       ELAPSED USER TIME (SEC)      =   0.0000    
       ELAPSED SYSTEM TIME (SEC)    =   0.0000    
       ELAPSED TOTAL CPU TIME (SEC) =   0.0000    
       ELAPSED WALLCLOCK TIME (SEC) =          1

               CONVERGENCE CHECKS FOR EQUILIBRIUM ITERATION     1


 AVERAGE FORCE                      6.382E-02   TIME AVG. FORCE       2.004E-02
 LARGEST RESIDUAL FORCE            -3.220E-15   AT NODE        817   DOF  2
   INSTANCE: CUBE-1                                                                          
 LARGEST INCREMENT OF DISP.        -5.000E-03   AT NODE          5   DOF  2
   INSTANCE: CUBE-1                                                                          
 LARGEST CORRECTION TO DISP.        1.331E-15   AT NODE        446   DOF  2
   INSTANCE: CUBE-1                                                                          
          THE FORCE     EQUILIBRIUM RESPONSE WAS LINEAR IN THIS INCREMENT

 AVERAGE PR. FLUX                   3.693E-16   TIME AVG. PR. FLUX    1.000E-02
 LARGEST RESIDUAL PR. FLUX          2.795E-15   AT NODE        767
   INSTANCE: CUBE-1                                                                          
 LARGEST INCREMENT OF VOL. LM.     -1.000E-03   AT NODE         99
   INSTANCE: CUBE-1                                                                          
 LARGEST CORRECTION TO VOL. LM.    -5.087E-16   AT NODE         99
   INSTANCE: CUBE-1                                                                          
          THERE IS ZERO PR. FLUX  EVERYWHERE
 

 ***WARNING: THERE IS ZERO PR. FLUX EVERYWHERE IN THE MODEL BASED ON THE 
             DEFAULT CRITERION. PLEASE CHECK THE VALUE OF THE AVERAGE PR. FLUX 
             DURING THE CURRENT ITERATION TO VERIFY THAT THE PR. FLUX IS SMALL 
             ENOUGH TO BE TREATED AS ZERO. IF NOT, PLEASE USE THE SOLUTION 
             CONTROLS TO RESET THE CRITERION FOR ZERO PR. FLUX.

 ITERATION SUMMARY FOR THE INCREMENT:   1 TOTAL ITERATIONS, OF WHICH
   0 ARE SEVERE DISCONTINUITY ITERATIONS AND  1 ARE EQUILIBRIUM ITERATIONS.

 TIME INCREMENT COMPLETED  1.000E-02,  FRACTION OF STEP COMPLETED  0.136    
 STEP TIME COMPLETED       0.136    ,  TOTAL TIME COMPLETED        0.136    


  INCREMENT    25 STARTS. ATTEMPT NUMBER  1, TIME INCREMENT  1.000E-02
 
	REGULARIZED SYMMETRIC DIRECT SPARSE SOLVER RUNNING ON
 	1 HOST:        1 MPI RANK  x 1 THREAD
 	NUMBER OF EQUATIONS:     5820
 	NUMBER OF RHS:           1
 	NUMBER OF FLOPS:         5.704e+08

     CHECK POINT   START OF SOLVER    

     CHECK POINT  END OF SOLVER       

       ELAPSED USER TIME (SEC)      =  0.10000    
       ELAPSED SYSTEM TIME (SEC)    =   0.0000    
       ELAPSED TOTAL CPU TIME (SEC) =  0.10000    
       ELAPSED WALLCLOCK TIME (SEC) =          0

               CONVERGENCE CHECKS FOR EQUILIBRIUM ITERATION     1


 AVERAGE FORCE                      6.848E-02   TIME AVG. FORCE       2.197E-02
 LARGEST RESIDUAL FORCE            -2.928E-15   AT NODE        911   DOF  2
   INSTANCE: CUBE-1                                                                          
 LARGEST INCREMENT OF DISP.        -5.000E-03   AT NODE          5   DOF  2
   INSTANCE: CUBE-1                                                                          
 LARGEST CORRECTION TO DISP.       -1.393E-15   AT NODE        113   DOF  1
   INSTANCE: CUBE-1                                                                          
          THE FORCE     EQUILIBRIUM RESPONSE WAS LINEAR IN THIS INCREMENT

 AVERAGE PR. FLUX                   4.042E-16   TIME AVG. PR. FLUX    1.000E-02
 LARGEST RESIDUAL PR. FLUX          2.575E-15   AT NODE       1073
   INSTANCE: CUBE-1                                                                          
 LARGEST INCREMENT OF VOL. LM.     -1.000E-03   AT NODE        111
   INSTANCE: CUBE-1                                                                          
 LARGEST CORRECTION TO VOL. LM.    -4.868E-16   AT NODE        111
   INSTANCE: CUBE-1                                                                          
          THERE IS ZERO PR. FLUX  EVERYWHERE
 

 ***WARNING: THERE IS ZERO PR. FLUX EVERYWHERE IN THE MODEL BASED ON THE 
             DEFAULT CRITERION. PLEASE CHECK THE VALUE OF THE AVERAGE PR. FLUX 
             DURING THE CURRENT ITERATION TO VERIFY THAT THE PR. FLUX IS SMALL 
             ENOUGH TO BE TREATED AS ZERO. IF NOT, PLEASE USE THE SOLUTION 
             CONTROLS TO RESET THE CRITERION FOR ZERO PR. FLUX.

 ITERATION SUMMARY FOR THE INCREMENT:   1 TOTAL ITERATIONS, OF WHICH
   0 ARE SEVERE DISCONTINUITY ITERATIONS AND  1 ARE EQUILIBRIUM ITERATIONS.

 TIME INCREMENT COMPLETED  1.000E-02,  FRACTION OF STEP COMPLETED  0.146    
 STEP TIME COMPLETED       0.146    ,  TOTAL TIME COMPLETED        0.146    


  INCREMENT    26 STARTS. ATTEMPT NUMBER  1, TIME INCREMENT  1.000E-02
 
	REGULARIZED SYMMETRIC DIRECT SPARSE SOLVER RUNNING ON
 	1 HOST:        1 MPI RANK  x 1 THREAD
 	NUMBER OF EQUATIONS:     5820
 	NUMBER OF RHS:           1
 	NUMBER OF FLOPS:         5.704e+08

     CHECK POINT   START OF SOLVER    

     CHECK POINT  END OF SOLVER       

       ELAPSED USER TIME (SEC)      =   0.0000    
       ELAPSED SYSTEM TIME (SEC)    =  0.10000    
       ELAPSED TOTAL CPU TIME (SEC) =  0.10000    
       ELAPSED WALLCLOCK TIME (SEC) =          0

               CONVERGENCE CHECKS FOR EQUILIBRIUM ITERATION     1


 AVERAGE FORCE                      7.312E-02   TIME AVG. FORCE       2.394E-02
 LARGEST RESIDUAL FORCE             4.469E-15   AT NODE        949   DOF  2
   INSTANCE: CUBE-1                                                                          
 LARGEST INCREMENT OF DISP.        -5.000E-03   AT NODE          5   DOF  2
   INSTANCE: CUBE-1                                                                          
 LARGEST CORRECTION TO DISP.        1.950E-15   AT NODE        113   DOF  1
   INSTANCE: CUBE-1                                                                          
          THE FORCE     EQUILIBRIUM RESPONSE WAS LINEAR IN THIS INCREMENT

 AVERAGE PR. FLUX                   4.503E-16   TIME AVG. PR. FLUX    1.000E-02
 LARGEST RESIDUAL PR. FLUX          2.676E-15   AT NODE        637
   INSTANCE: CUBE-1                                                                          
 LARGEST INCREMENT OF VOL. LM.     -1.000E-03   AT NODE        442
   INSTANCE: CUBE-1                                                                          
 LARGEST CORRECTION TO VOL. LM.     4.752E-16   AT NODE        111
   INSTANCE: CUBE-1                                                                          
          THERE IS ZERO PR. FLUX  EVERYWHERE
 

 ***WARNING: THERE IS ZERO PR. FLUX EVERYWHERE IN THE MODEL BASED ON THE 
             DEFAULT CRITERION. PLEASE CHECK THE VALUE OF THE AVERAGE PR. FLUX 
             DURING THE CURRENT ITERATION TO VERIFY THAT THE PR. FLUX IS SMALL 
             ENOUGH TO BE TREATED AS ZERO. IF NOT, PLEASE USE THE SOLUTION 
             CONTROLS TO RESET THE CRITERION FOR ZERO PR. FLUX.

 ITERATION SUMMARY FOR THE INCREMENT:   1 TOTAL ITERATIONS, OF WHICH
   0 ARE SEVERE DISCONTINUITY ITERATIONS AND  1 ARE EQUILIBRIUM ITERATIONS.

 TIME INCREMENT COMPLETED  1.000E-02,  FRACTION OF STEP COMPLETED  0.156    
 STEP TIME COMPLETED       0.156    ,  TOTAL TIME COMPLETED        0.156    


  INCREMENT    27 STARTS. ATTEMPT NUMBER  1, TIME INCREMENT  1.000E-02
 
	REGULARIZED SYMMETRIC DIRECT SPARSE SOLVER RUNNING ON
 	1 HOST:        1 MPI RANK  x 1 THREAD
 	NUMBER OF EQUATIONS:     5820
 	NUMBER OF RHS:           1
 	NUMBER OF FLOPS:         5.704e+08

     CHECK POINT   START OF SOLVER    

     CHECK POINT  END OF SOLVER       

       ELAPSED USER TIME (SEC)      =  0.10000    
       ELAPSED SYSTEM TIME (SEC)    =   0.0000    
       ELAPSED TOTAL CPU TIME (SEC) =  0.10000    
       ELAPSED WALLCLOCK TIME (SEC) =          0

               CONVERGENCE CHECKS FOR EQUILIBRIUM ITERATION     1


 AVERAGE FORCE                      7.776E-02   TIME AVG. FORCE       2.593E-02
 LARGEST RESIDUAL FORCE             3.414E-15   AT NODE       1217   DOF  2
   INSTANCE: CUBE-1                                                                          
 LARGEST INCREMENT OF DISP.        -5.000E-03   AT NODE          5   DOF  2
   INSTANCE: CUBE-1                                                                          
 LARGEST CORRECTION TO DISP.        1.523E-15   AT NODE         54   DOF  3
   INSTANCE: CUBE-1                                                                          
          THE FORCE     EQUILIBRIUM RESPONSE WAS LINEAR IN THIS INCREMENT

 AVERAGE PR. FLUX                   4.843E-16   TIME AVG. PR. FLUX    1.000E-02
 LARGEST RESIDUAL PR. FLUX         -2.711E-15   AT NODE        619
   INSTANCE: CUBE-1                                                                          
 LARGEST INCREMENT OF VOL. LM.     -1.000E-03   AT NODE        111
   INSTANCE: CUBE-1                                                                          
 LARGEST CORRECTION TO VOL. LM.     5.871E-16   AT NODE        105
   INSTANCE: CUBE-1                                                                          
          THERE IS ZERO PR. FLUX  EVERYWHERE
 

 ***WARNING: THERE IS ZERO PR. FLUX EVERYWHERE IN THE MODEL BASED ON THE 
             DEFAULT CRITERION. PLEASE CHECK THE VALUE OF THE AVERAGE PR. FLUX 
             DURING THE CURRENT ITERATION TO VERIFY THAT THE PR. FLUX IS SMALL 
             ENOUGH TO BE TREATED AS ZERO. IF NOT, PLEASE USE THE SOLUTION 
             CONTROLS TO RESET THE CRITERION FOR ZERO PR. FLUX.

 ITERATION SUMMARY FOR THE INCREMENT:   1 TOTAL ITERATIONS, OF WHICH
   0 ARE SEVERE DISCONTINUITY ITERATIONS AND  1 ARE EQUILIBRIUM ITERATIONS.

 TIME INCREMENT COMPLETED  1.000E-02,  FRACTION OF STEP COMPLETED  0.166    
 STEP TIME COMPLETED       0.166    ,  TOTAL TIME COMPLETED        0.166    


  INCREMENT    28 STARTS. ATTEMPT NUMBER  1, TIME INCREMENT  1.000E-02
 
	REGULARIZED SYMMETRIC DIRECT SPARSE SOLVER RUNNING ON
 	1 HOST:        1 MPI RANK  x 1 THREAD
 	NUMBER OF EQUATIONS:     5820
 	NUMBER OF RHS:           1
 	NUMBER OF FLOPS:         5.704e+08

     CHECK POINT   START OF SOLVER    

     CHECK POINT  END OF SOLVER       

       ELAPSED USER TIME (SEC)      =   0.0000    
       ELAPSED SYSTEM TIME (SEC)    =   0.0000    
       ELAPSED TOTAL CPU TIME (SEC) =   0.0000    
       ELAPSED WALLCLOCK TIME (SEC) =          0

               CONVERGENCE CHECKS FOR EQUILIBRIUM ITERATION     1


 AVERAGE FORCE                      8.239E-02   TIME AVG. FORCE       2.795E-02
 LARGEST RESIDUAL FORCE            -4.163E-15   AT NODE        906   DOF  2
   INSTANCE: CUBE-1                                                                          
 LARGEST INCREMENT OF DISP.        -5.000E-03   AT NODE          5   DOF  2
   INSTANCE: CUBE-1                                                                          
 LARGEST CORRECTION TO DISP.        1.855E-15   AT NODE        527   DOF  1
   INSTANCE: CUBE-1                                                                          
          THE FORCE     EQUILIBRIUM RESPONSE WAS LINEAR IN THIS INCREMENT

 AVERAGE PR. FLUX                   5.159E-16   TIME AVG. PR. FLUX    1.000E-02
 LARGEST RESIDUAL PR. FLUX         -2.938E-15   AT NODE        616
   INSTANCE: CUBE-1                                                                          
 LARGEST INCREMENT OF VOL. LM.     -1.000E-03   AT NODE         51
   INSTANCE: CUBE-1                                                                          
 LARGEST CORRECTION TO VOL. LM.     7.195E-16   AT NODE        111
   INSTANCE: CUBE-1                                                                          
          THERE IS ZERO PR. FLUX  EVERYWHERE
 

 ***WARNING: THERE IS ZERO PR. FLUX EVERYWHERE IN THE MODEL BASED ON THE 
             DEFAULT CRITERION. PLEASE CHECK THE VALUE OF THE AVERAGE PR. FLUX 
             DURING THE CURRENT ITERATION TO VERIFY THAT THE PR. FLUX IS SMALL 
             ENOUGH TO BE TREATED AS ZERO. IF NOT, PLEASE USE THE SOLUTION 
             CONTROLS TO RESET THE CRITERION FOR ZERO PR. FLUX.

 ITERATION SUMMARY FOR THE INCREMENT:   1 TOTAL ITERATIONS, OF WHICH
   0 ARE SEVERE DISCONTINUITY ITERATIONS AND  1 ARE EQUILIBRIUM ITERATIONS.

 TIME INCREMENT COMPLETED  1.000E-02,  FRACTION OF STEP COMPLETED  0.176    
 STEP TIME COMPLETED       0.176    ,  TOTAL TIME COMPLETED        0.176    


  INCREMENT    29 STARTS. ATTEMPT NUMBER  1, TIME INCREMENT  1.000E-02
 
	REGULARIZED SYMMETRIC DIRECT SPARSE SOLVER RUNNING ON
 	1 HOST:        1 MPI RANK  x 1 THREAD
 	NUMBER OF EQUATIONS:     5820
 	NUMBER OF RHS:           1
 	NUMBER OF FLOPS:         5.704e+08

     CHECK POINT   START OF SOLVER    

     CHECK POINT  END OF SOLVER       

       ELAPSED USER TIME (SEC)      =  0.10000    
       ELAPSED SYSTEM TIME (SEC)    =   0.0000    
       ELAPSED TOTAL CPU TIME (SEC) =  0.10000    
       ELAPSED WALLCLOCK TIME (SEC) =          0

               CONVERGENCE CHECKS FOR EQUILIBRIUM ITERATION     1


 AVERAGE FORCE                      8.702E-02   TIME AVG. FORCE       2.999E-02
 LARGEST RESIDUAL FORCE             4.269E-15   AT NODE       1033   DOF  2
   INSTANCE: CUBE-1                                                                          
 LARGEST INCREMENT OF DISP.        -5.000E-03   AT NODE          5   DOF  2
   INSTANCE: CUBE-1                                                                          
 LARGEST CORRECTION TO DISP.       -2.126E-15   AT NODE         90   DOF  2
[...]
          THERE IS ZERO PR. FLUX  EVERYWHERE
 

 ***WARNING: THERE IS ZERO PR. FLUX EVERYWHERE IN THE MODEL BASED ON THE 
             DEFAULT CRITERION. PLEASE CHECK THE VALUE OF THE AVERAGE PR. FLUX 
             DURING THE CURRENT ITERATION TO VERIFY THAT THE PR. FLUX IS SMALL 
             ENOUGH TO BE TREATED AS ZERO. IF NOT, PLEASE USE THE SOLUTION 
             CONTROLS TO RESET THE CRITERION FOR ZERO PR. FLUX.

 ITERATION SUMMARY FOR THE INCREMENT:   1 TOTAL ITERATIONS, OF WHICH
   0 ARE SEVERE DISCONTINUITY ITERATIONS AND  1 ARE EQUILIBRIUM ITERATIONS.

 TIME INCREMENT COMPLETED  1.000E-02,  FRACTION OF STEP COMPLETED  0.936    
 STEP TIME COMPLETED       0.936    ,  TOTAL TIME COMPLETED        0.936    


  INCREMENT   105 STARTS. ATTEMPT NUMBER  1, TIME INCREMENT  1.000E-02
 
	REGULARIZED SYMMETRIC DIRECT SPARSE SOLVER RUNNING ON
 	1 HOST:        1 MPI RANK  x 1 THREAD
 	NUMBER OF EQUATIONS:     5820
 	NUMBER OF RHS:           1
 	NUMBER OF FLOPS:         5.704e+08

     CHECK POINT   START OF SOLVER    

     CHECK POINT  END OF SOLVER       

       ELAPSED USER TIME (SEC)      =  0.10000    
       ELAPSED SYSTEM TIME (SEC)    =   0.0000    
       ELAPSED TOTAL CPU TIME (SEC) =  0.10000    
       ELAPSED WALLCLOCK TIME (SEC) =          0

               CONVERGENCE CHECKS FOR EQUILIBRIUM ITERATION     1


 AVERAGE FORCE                      0.420       TIME AVG. FORCE       0.196    
 LARGEST RESIDUAL FORCE            -2.087E-14   AT NODE       1042   DOF  2
   INSTANCE: CUBE-1                                                                          
 LARGEST INCREMENT OF DISP.        -5.000E-03   AT NODE          5   DOF  2
   INSTANCE: CUBE-1                                                                          
 LARGEST CORRECTION TO DISP.        7.073E-15   AT NODE       1356   DOF  2
   INSTANCE: CUBE-1                                                                          
          THE FORCE     EQUILIBRIUM RESPONSE WAS LINEAR IN THIS INCREMENT

 AVERAGE PR. FLUX                   2.411E-15   TIME AVG. PR. FLUX    1.000E-02
 LARGEST RESIDUAL PR. FLUX         -2.824E-15   AT NODE       1438
   INSTANCE: CUBE-1                                                                          
 LARGEST INCREMENT OF VOL. LM.     -1.000E-03   AT NODE        109
   INSTANCE: CUBE-1                                                                          
 LARGEST CORRECTION TO VOL. LM.    -3.669E-15   AT NODE         94
   INSTANCE: CUBE-1                                                                          
          THERE IS ZERO PR. FLUX  EVERYWHERE
 

 ***WARNING: THERE IS ZERO PR. FLUX EVERYWHERE IN THE MODEL BASED ON THE 
             DEFAULT CRITERION. PLEASE CHECK THE VALUE OF THE AVERAGE PR. FLUX 
             DURING THE CURRENT ITERATION TO VERIFY THAT THE PR. FLUX IS SMALL 
             ENOUGH TO BE TREATED AS ZERO. IF NOT, PLEASE USE THE SOLUTION 
             CONTROLS TO RESET THE CRITERION FOR ZERO PR. FLUX.

 ITERATION SUMMARY FOR THE INCREMENT:   1 TOTAL ITERATIONS, OF WHICH
   0 ARE SEVERE DISCONTINUITY ITERATIONS AND  1 ARE EQUILIBRIUM ITERATIONS.

 TIME INCREMENT COMPLETED  1.000E-02,  FRACTION OF STEP COMPLETED  0.946    
 STEP TIME COMPLETED       0.946    ,  TOTAL TIME COMPLETED        0.946    


  INCREMENT   106 STARTS. ATTEMPT NUMBER  1, TIME INCREMENT  1.000E-02
 
	REGULARIZED SYMMETRIC DIRECT SPARSE SOLVER RUNNING ON
 	1 HOST:        1 MPI RANK  x 1 THREAD
 	NUMBER OF EQUATIONS:     5820
 	NUMBER OF RHS:           1
 	NUMBER OF FLOPS:         5.704e+08

     CHECK POINT   START OF SOLVER    

     CHECK POINT  END OF SOLVER       

       ELAPSED USER TIME (SEC)      =  0.10000    
       ELAPSED SYSTEM TIME (SEC)    =   0.0000    
       ELAPSED TOTAL CPU TIME (SEC) =  0.10000    
       ELAPSED WALLCLOCK TIME (SEC) =          0

               CONVERGENCE CHECKS FOR EQUILIBRIUM ITERATION     1


 AVERAGE FORCE                      0.424       TIME AVG. FORCE       0.198    
 LARGEST RESIDUAL FORCE             2.531E-14   AT NODE       1138   DOF  1
   INSTANCE: CUBE-1                                                                          
 LARGEST INCREMENT OF DISP.        -5.000E-03   AT NODE          5   DOF  2
   INSTANCE: CUBE-1                                                                          
 LARGEST CORRECTION TO DISP.       -9.035E-15   AT NODE        108   DOF  1
   INSTANCE: CUBE-1                                                                          
          THE FORCE     EQUILIBRIUM RESPONSE WAS LINEAR IN THIS INCREMENT

 AVERAGE PR. FLUX                   2.595E-15   TIME AVG. PR. FLUX    1.000E-02
 LARGEST RESIDUAL PR. FLUX         -3.662E-15   AT NODE        903
   INSTANCE: CUBE-1                                                                          
 LARGEST INCREMENT OF VOL. LM.     -1.000E-03   AT NODE         92
   INSTANCE: CUBE-1                                                                          
 LARGEST CORRECTION TO VOL. LM.     3.188E-15   AT NODE        379
   INSTANCE: CUBE-1                                                                          
          THERE IS ZERO PR. FLUX  EVERYWHERE
 

 ***WARNING: THERE IS ZERO PR. FLUX EVERYWHERE IN THE MODEL BASED ON THE 
             DEFAULT CRITERION. PLEASE CHECK THE VALUE OF THE AVERAGE PR. FLUX 
             DURING THE CURRENT ITERATION TO VERIFY THAT THE PR. FLUX IS SMALL 
             ENOUGH TO BE TREATED AS ZERO. IF NOT, PLEASE USE THE SOLUTION 
             CONTROLS TO RESET THE CRITERION FOR ZERO PR. FLUX.

 ITERATION SUMMARY FOR THE INCREMENT:   1 TOTAL ITERATIONS, OF WHICH
   0 ARE SEVERE DISCONTINUITY ITERATIONS AND  1 ARE EQUILIBRIUM ITERATIONS.

 TIME INCREMENT COMPLETED  1.000E-02,  FRACTION OF STEP COMPLETED  0.956    
 STEP TIME COMPLETED       0.956    ,  TOTAL TIME COMPLETED        0.956    


  INCREMENT   107 STARTS. ATTEMPT NUMBER  1, TIME INCREMENT  1.000E-02
 
	REGULARIZED SYMMETRIC DIRECT SPARSE SOLVER RUNNING ON
 	1 HOST:        1 MPI RANK  x 1 THREAD
 	NUMBER OF EQUATIONS:     5820
 	NUMBER OF RHS:           1
 	NUMBER OF FLOPS:         5.704e+08

     CHECK POINT   START OF SOLVER    

     CHECK POINT  END OF SOLVER       

       ELAPSED USER TIME (SEC)      =  0.10000    
       ELAPSED SYSTEM TIME (SEC)    =   0.0000    
       ELAPSED TOTAL CPU TIME (SEC) =  0.10000    
       ELAPSED WALLCLOCK TIME (SEC) =          0

               CONVERGENCE CHECKS FOR EQUILIBRIUM ITERATION     1


 AVERAGE FORCE                      0.428       TIME AVG. FORCE       0.200    
 LARGEST RESIDUAL FORCE             2.419E-14   AT NODE       1033   DOF  2
   INSTANCE: CUBE-1                                                                          
 LARGEST INCREMENT OF DISP.        -5.000E-03   AT NODE          5   DOF  2
   INSTANCE: CUBE-1                                                                          
 LARGEST CORRECTION TO DISP.       -9.367E-15   AT NODE        406   DOF  2
   INSTANCE: CUBE-1                                                                          
          THE FORCE     EQUILIBRIUM RESPONSE WAS LINEAR IN THIS INCREMENT

 AVERAGE PR. FLUX                   2.406E-15   TIME AVG. PR. FLUX    1.000E-02
 LARGEST RESIDUAL PR. FLUX          3.498E-15   AT NODE        665
   INSTANCE: CUBE-1                                                                          
 LARGEST INCREMENT OF VOL. LM.     -1.000E-03   AT NODE         55
   INSTANCE: CUBE-1                                                                          
 LARGEST CORRECTION TO VOL. LM.     3.344E-15   AT NODE        515
   INSTANCE: CUBE-1                                                                          
          THERE IS ZERO PR. FLUX  EVERYWHERE
 

 ***WARNING: THERE IS ZERO PR. FLUX EVERYWHERE IN THE MODEL BASED ON THE 
             DEFAULT CRITERION. PLEASE CHECK THE VALUE OF THE AVERAGE PR. FLUX 
             DURING THE CURRENT ITERATION TO VERIFY THAT THE PR. FLUX IS SMALL 
             ENOUGH TO BE TREATED AS ZERO. IF NOT, PLEASE USE THE SOLUTION 
             CONTROLS TO RESET THE CRITERION FOR ZERO PR. FLUX.

 ITERATION SUMMARY FOR THE INCREMENT:   1 TOTAL ITERATIONS, OF WHICH
   0 ARE SEVERE DISCONTINUITY ITERATIONS AND  1 ARE EQUILIBRIUM ITERATIONS.

 TIME INCREMENT COMPLETED  1.000E-02,  FRACTION OF STEP COMPLETED  0.966    
 STEP TIME COMPLETED       0.966    ,  TOTAL TIME COMPLETED        0.966    


  INCREMENT   108 STARTS. ATTEMPT NUMBER  1, TIME INCREMENT  1.000E-02
 
	REGULARIZED SYMMETRIC DIRECT SPARSE SOLVER RUNNING ON
 	1 HOST:        1 MPI RANK  x 1 THREAD
 	NUMBER OF EQUATIONS:     5820
 	NUMBER OF RHS:           1
 	NUMBER OF FLOPS:         5.704e+08

     CHECK POINT   START OF SOLVER    

     CHECK POINT  END OF SOLVER       

       ELAPSED USER TIME (SEC)      =  0.10000    
       ELAPSED SYSTEM TIME (SEC)    =   0.0000    
       ELAPSED TOTAL CPU TIME (SEC) =  0.10000    
       ELAPSED WALLCLOCK TIME (SEC) =          0

               CONVERGENCE CHECKS FOR EQUILIBRIUM ITERATION     1


 AVERAGE FORCE                      0.433       TIME AVG. FORCE       0.202    
 LARGEST RESIDUAL FORCE             2.209E-14   AT NODE        986   DOF  1
   INSTANCE: CUBE-1                                                                          
 LARGEST INCREMENT OF DISP.        -5.000E-03   AT NODE          5   DOF  2
   INSTANCE: CUBE-1                                                                          
 LARGEST CORRECTION TO DISP.        1.149E-14   AT NODE         55   DOF  3
   INSTANCE: CUBE-1                                                                          
          THE FORCE     EQUILIBRIUM RESPONSE WAS LINEAR IN THIS INCREMENT

 AVERAGE PR. FLUX                   2.655E-15   TIME AVG. PR. FLUX    1.000E-02
 LARGEST RESIDUAL PR. FLUX         -2.918E-15   AT NODE        672
   INSTANCE: CUBE-1                                                                          
 LARGEST INCREMENT OF VOL. LM.     -1.000E-03   AT NODE        466
   INSTANCE: CUBE-1                                                                          
 LARGEST CORRECTION TO VOL. LM.    -2.727E-15   AT NODE        116
   INSTANCE: CUBE-1                                                                          
          THERE IS ZERO PR. FLUX  EVERYWHERE
 

 ***WARNING: THERE IS ZERO PR. FLUX EVERYWHERE IN THE MODEL BASED ON THE 
             DEFAULT CRITERION. PLEASE CHECK THE VALUE OF THE AVERAGE PR. FLUX 
             DURING THE CURRENT ITERATION TO VERIFY THAT THE PR. FLUX IS SMALL 
             ENOUGH TO BE TREATED AS ZERO. IF NOT, PLEASE USE THE SOLUTION 
             CONTROLS TO RESET THE CRITERION FOR ZERO PR. FLUX.

 ITERATION SUMMARY FOR THE INCREMENT:   1 TOTAL ITERATIONS, OF WHICH
   0 ARE SEVERE DISCONTINUITY ITERATIONS AND  1 ARE EQUILIBRIUM ITERATIONS.

 TIME INCREMENT COMPLETED  1.000E-02,  FRACTION OF STEP COMPLETED  0.976    
 STEP TIME COMPLETED       0.976    ,  TOTAL TIME COMPLETED        0.976    


  INCREMENT   109 STARTS. ATTEMPT NUMBER  1, TIME INCREMENT  1.000E-02
 
	REGULARIZED SYMMETRIC DIRECT SPARSE SOLVER RUNNING ON
 	1 HOST:        1 MPI RANK  x 1 THREAD
 	NUMBER OF EQUATIONS:     5820
 	NUMBER OF RHS:           1
 	NUMBER OF FLOPS:         5.704e+08

     CHECK POINT   START OF SOLVER    

     CHECK POINT  END OF SOLVER       

       ELAPSED USER TIME (SEC)      =   0.0000    
       ELAPSED SYSTEM TIME (SEC)    =   0.0000    
       ELAPSED TOTAL CPU TIME (SEC) =   0.0000    
       ELAPSED WALLCLOCK TIME (SEC) =          0

               CONVERGENCE CHECKS FOR EQUILIBRIUM ITERATION     1


 AVERAGE FORCE                      0.437       TIME AVG. FORCE       0.204    
 LARGEST RESIDUAL FORCE            -2.215E-14   AT NODE       1186   DOF  2
   INSTANCE: CUBE-1                                                                          
 LARGEST INCREMENT OF DISP.        -5.000E-03   AT NODE          5   DOF  2
   INSTANCE: CUBE-1                                                                          
 LARGEST CORRECTION TO DISP.       -1.069E-14   AT NODE        110   DOF  1
   INSTANCE: CUBE-1                                                                          
          THE FORCE     EQUILIBRIUM RESPONSE WAS LINEAR IN THIS INCREMENT

 AVERAGE PR. FLUX                   2.391E-15   TIME AVG. PR. FLUX    1.000E-02
 LARGEST RESIDUAL PR. FLUX          3.248E-15   AT NODE        749
   INSTANCE: CUBE-1                                                                          
 LARGEST INCREMENT OF VOL. LM.     -1.000E-03   AT NODE        449
   INSTANCE: CUBE-1                                                                          
 LARGEST CORRECTION TO VOL. LM.    -3.688E-15   AT NODE         95
   INSTANCE: CUBE-1                                                                          
          THERE IS ZERO PR. FLUX  EVERYWHERE
 

 ***WARNING: THERE IS ZERO PR. FLUX EVERYWHERE IN THE MODEL BASED ON THE 
             DEFAULT CRITERION. PLEASE CHECK THE VALUE OF THE AVERAGE PR. FLUX 
             DURING THE CURRENT ITERATION TO VERIFY THAT THE PR. FLUX IS SMALL 
             ENOUGH TO BE TREATED AS ZERO. IF NOT, PLEASE USE THE SOLUTION 
             CONTROLS TO RESET THE CRITERION FOR ZERO PR. FLUX.

 ITERATION SUMMARY FOR THE INCREMENT:   1 TOTAL ITERATIONS, OF WHICH
   0 ARE SEVERE DISCONTINUITY ITERATIONS AND  1 ARE EQUILIBRIUM ITERATIONS.

 TIME INCREMENT COMPLETED  1.000E-02,  FRACTION OF STEP COMPLETED  0.986    
 STEP TIME COMPLETED       0.986    ,  TOTAL TIME COMPLETED        0.986    


  INCREMENT   110 STARTS. ATTEMPT NUMBER  1, TIME INCREMENT  1.000E-02
 
	REGULARIZED SYMMETRIC DIRECT SPARSE SOLVER RUNNING ON
 	1 HOST:        1 MPI RANK  x 1 THREAD
 	NUMBER OF EQUATIONS:     5820
 	NUMBER OF RHS:           1
 	NUMBER OF FLOPS:         5.704e+08

     CHECK POINT   START OF SOLVER    

     CHECK POINT  END OF SOLVER       

       ELAPSED USER TIME (SEC)      =  0.10000    
       ELAPSED SYSTEM TIME (SEC)    =   0.0000    
       ELAPSED TOTAL CPU TIME (SEC) =  0.10000    
       ELAPSED WALLCLOCK TIME (SEC) =          1

               CONVERGENCE CHECKS FOR EQUILIBRIUM ITERATION     1


 AVERAGE FORCE                      0.441       TIME AVG. FORCE       0.206    
 LARGEST RESIDUAL FORCE             2.071E-14   AT NODE        985   DOF  1
   INSTANCE: CUBE-1                                                                          
 LARGEST INCREMENT OF DISP.        -5.000E-03   AT NODE          5   DOF  2
   INSTANCE: CUBE-1                                                                          
 LARGEST CORRECTION TO DISP.       -8.856E-15   AT NODE        536   DOF  3
   INSTANCE: CUBE-1                                                                          
          THE FORCE     EQUILIBRIUM RESPONSE WAS LINEAR IN THIS INCREMENT

 AVERAGE PR. FLUX                   2.496E-15   TIME AVG. PR. FLUX    1.000E-02
 LARGEST RESIDUAL PR. FLUX         -3.994E-15   AT NODE        641
   INSTANCE: CUBE-1                                                                          
 LARGEST INCREMENT OF VOL. LM.     -1.000E-03   AT NODE         96
   INSTANCE: CUBE-1                                                                          
 LARGEST CORRECTION TO VOL. LM.     2.828E-15   AT NODE        449
   INSTANCE: CUBE-1                                                                          
          THERE IS ZERO PR. FLUX  EVERYWHERE
 

 ***WARNING: THERE IS ZERO PR. FLUX EVERYWHERE IN THE MODEL BASED ON THE 
             DEFAULT CRITERION. PLEASE CHECK THE VALUE OF THE AVERAGE PR. FLUX 
             DURING THE CURRENT ITERATION TO VERIFY THAT THE PR. FLUX IS SMALL 
             ENOUGH TO BE TREATED AS ZERO. IF NOT, PLEASE USE THE SOLUTION 
             CONTROLS TO RESET THE CRITERION FOR ZERO PR. FLUX.

 ITERATION SUMMARY FOR THE INCREMENT:   1 TOTAL ITERATIONS, OF WHICH
   0 ARE SEVERE DISCONTINUITY ITERATIONS AND  1 ARE EQUILIBRIUM ITERATIONS.

 TIME INCREMENT COMPLETED  1.000E-02,  FRACTION OF STEP COMPLETED  0.996    
 STEP TIME COMPLETED       0.996    ,  TOTAL TIME COMPLETED        0.996    


  INCREMENT   111 STARTS. ATTEMPT NUMBER  1, TIME INCREMENT  4.151E-03
 
	REGULARIZED SYMMETRIC DIRECT SPARSE SOLVER RUNNING ON
 	1 HOST:        1 MPI RANK  x 1 THREAD
 	NUMBER OF EQUATIONS:     5820
 	NUMBER OF RHS:           1
 	NUMBER OF FLOPS:         5.704e+08

     CHECK POINT   START OF SOLVER    

     CHECK POINT  END OF SOLVER       

       ELAPSED USER TIME (SEC)      =   0.0000    
       ELAPSED SYSTEM TIME (SEC)    =   0.0000    
       ELAPSED TOTAL CPU TIME (SEC) =   0.0000    
       ELAPSED WALLCLOCK TIME (SEC) =          0

               CONVERGENCE CHECKS FOR EQUILIBRIUM ITERATION     1


 AVERAGE FORCE                      0.442       TIME AVG. FORCE       0.209    
 LARGEST RESIDUAL FORCE            -2.698E-14   AT NODE       1138   DOF  1
   INSTANCE: CUBE-1                                                                          
 LARGEST INCREMENT OF DISP.        -2.075E-03   AT NODE          5   DOF  2
   INSTANCE: CUBE-1                                                                          
 LARGEST CORRECTION TO DISP.        8.417E-15   AT NODE        111   DOF  1
   INSTANCE: CUBE-1                                                                          
          THE FORCE     EQUILIBRIUM RESPONSE WAS LINEAR IN THIS INCREMENT

 AVERAGE PR. FLUX                   2.402E-15   TIME AVG. PR. FLUX    1.000E-02
 LARGEST RESIDUAL PR. FLUX          3.404E-15   AT NODE        873
   INSTANCE: CUBE-1                                                                          
 LARGEST INCREMENT OF VOL. LM.     -4.151E-04   AT NODE         90
   INSTANCE: CUBE-1                                                                          
 LARGEST CORRECTION TO VOL. LM.     3.038E-15   AT NODE        533
   INSTANCE: CUBE-1                                                                          
          THERE IS ZERO PR. FLUX  EVERYWHERE
 

 ***WARNING: THERE IS ZERO PR. FLUX EVERYWHERE IN THE MODEL BASED ON THE 
             DEFAULT CRITERION. PLEASE CHECK THE VALUE OF THE AVERAGE PR. FLUX 
             DURING THE CURRENT ITERATION TO VERIFY THAT THE PR. FLUX IS SMALL 
             ENOUGH TO BE TREATED AS ZERO. IF NOT, PLEASE USE THE SOLUTION 
             CONTROLS TO RESET THE CRITERION FOR ZERO PR. FLUX.

 ITERATION SUMMARY FOR THE INCREMENT:   1 TOTAL ITERATIONS, OF WHICH
   0 ARE SEVERE DISCONTINUITY ITERATIONS AND  1 ARE EQUILIBRIUM ITERATIONS.

 TIME INCREMENT COMPLETED  4.151E-03,  FRACTION OF STEP COMPLETED   1.00    
 STEP TIME COMPLETED        1.00    ,  TOTAL TIME COMPLETED         1.00    


          THE ANALYSIS HAS BEEN COMPLETED



     ANALYSIS SUMMARY:
     TOTAL OF        111  INCREMENTS
                       0  CUTBACKS IN AUTOMATIC INCREMENTATION
                     111  ITERATIONS INCLUDING CONTACT ITERATIONS IF PRESENT
                     111  PASSES THROUGH THE EQUATION SOLVER OF WHICH 
                     111  INVOLVE MATRIX DECOMPOSITION, INCLUDING
                       0  DECOMPOSITION(S) OF THE MASS MATRIX
                       1  REORDERING OF EQUATIONS TO MINIMIZE WAVEFRONT
                       0  ADDITIONAL RESIDUAL EVALUATIONS FOR LINE SEARCHES
                       0  ADDITIONAL OPERATOR EVALUATIONS FOR LINE SEARCHES
                       0  WARNING MESSAGES DURING USER INPUT PROCESSING
                     111  WARNING MESSAGES DURING ANALYSIS
                       0  ANALYSIS WARNINGS ARE NUMERICAL PROBLEM MESSAGES
                       0  ANALYSIS WARNINGS ARE NEGATIVE EIGENVALUE MESSAGES
                       0  ERROR MESSAGES



     JOB TIME SUMMARY
       USER TIME (SEC)      =   39.000    
       SYSTEM TIME (SEC)    =   2.5000    
       TOTAL CPU TIME (SEC) =   41.500    
       WALLCLOCK TIME (SEC) =         41
