1

   Abaqus 2022                                  Date 23-Feb-2026   Time 11:14:36
   For use by UNIVERSITY OF MICHIGAN under license from Dassault Systemes or its subsidiary.

                                                                                 
                                                                                 
 STEP    1     INCREMENT     1     STEP TIME    0.00    


                        S T E P       1     S T A T I C   A N A L Y S I S


                                                                                          

     AUTOMATIC TIME CONTROL WITH -
          A SUGGESTED INITIAL TIME INCREMENT OF                1.000E-04
          AND A TOTAL TIME PERIOD OF                            1.00    
          THE MINIMUM TIME INCREMENT ALLOWED IS                1.000E-09
          THE MAXIMUM TIME INCREMENT ALLOWED IS                1.000E-02

     LINEAR EQUATION SOLVER TYPE         DIRECT SPARSE

 CONVERGENCE TOLERANCE PARAMETERS FOR FORCE    
     CRITERION FOR RESIDUAL FORCE     FOR A NONLINEAR PROBLEM          5.000E-03
     CRITERION FOR DISP.    CORRECTION IN A NONLINEAR PROBLEM          1.000E-02
     INITIAL VALUE OF TIME AVERAGE FORCE                               1.000E-02
     AVERAGE FORCE     IS TIME AVERAGE FORCE    
     ALTERNATE CRIT. FOR RESIDUAL FORCE     FOR A NONLINEAR PROBLEM    2.000E-02
     CRITERION FOR ZERO FORCE     RELATIVE TO TIME AVRG. FORCE         1.000E-05
     CRITERION FOR RESIDUAL FORCE     WHEN THERE IS ZERO FLUX          1.000E-05
     CRITERION FOR DISP.    CORRECTION WHEN THERE IS ZERO FLUX         1.000E-03
     CRITERION FOR RESIDUAL FORCE     FOR A LINEAR INCREMENT           1.000E-08
     FIELD CONVERSION RATIO                                             1.00    
     CRITERION FOR ZERO FORCE     REL. TO TIME AVRG. MAX. FORCE        1.000E-05
     CRITERION FOR ZERO DISP.    RELATIVE TO CHARACTERISTIC LENGTH     1.000E-08

 CONVERGENCE TOLERANCE PARAMETERS FOR PR. FLUX 
     CRITERION FOR RESIDUAL PR. FLUX  FOR A NONLINEAR PROBLEM          5.000E-03
     CRITERION FOR VOL. LM. CORRECTION IN A NONLINEAR PROBLEM          1.000E-02
     INITIAL VALUE OF TIME AVERAGE PR. FLUX                            1.000E-02
     AVERAGE PR. FLUX  IS TIME AVERAGE PR. FLUX 
     ALTERNATE CRIT. FOR RESIDUAL PR. FLUX  FOR A NONLINEAR PROBLEM    2.000E-02
     CRITERION FOR ZERO PR. FLUX  RELATIVE TO TIME AVRG. PR. FLUX      1.000E-05
     CRITERION FOR RESIDUAL PR. FLUX  WHEN THERE IS ZERO FLUX          1.000E-05
     CRITERION FOR VOL. LM. CORRECTION WHEN THERE IS ZERO FLUX         1.000E-03
     CRITERION FOR RESIDUAL PR. FLUX  FOR A LINEAR INCREMENT           1.000E-08
     FIELD CONVERSION RATIO                                             1.00    
     CRITERION FOR ZERO PR. FLUX  REL. TO TIME AVRG. MAX. PR. FLUX     1.000E-05

     VOLUMETRIC STRAIN COMPATIBILITY TOLERANCE FOR HYBRID SOLIDS       1.000E-05
     AXIAL STRAIN COMPATIBILITY TOLERANCE FOR HYBRID BEAMS             1.000E-05
     TRANS. SHEAR STRAIN COMPATIBILITY TOLERANCE FOR HYBRID BEAMS      1.000E-05
     SOFT CONTACT CONSTRAINT COMPATIBILITY TOLERANCE FOR P>P0          5.000E-03
     SOFT CONTACT CONSTRAINT COMPATIBILITY TOLERANCE FOR P=0.0         0.100    
     CONTACT FORCE ERROR TOLERANCE FOR CONVERT SDI=YES                 1.00    
     DISPLACEMENT COMPATIBILITY TOLERANCE FOR DCOUP ELEMENTS           1.000E-05
     ROTATION COMPATIBILITY TOLERANCE FOR DCOUP ELEMENTS               1.000E-05

 EQUILIBRIUM WILL BE CHECKED FOR SEVERE DISCONTINUITY ITERATIONS

 TIME INCREMENTATION CONTROL PARAMETERS:
     FIRST EQUILIBRIUM ITERATION FOR CONSECUTIVE DIVERGENCE CHECK              4
     EQUILIBRIUM ITERATION AT WHICH LOG. CONVERGENCE RATE CHECK BEGINS         8
     EQUILIBRIUM ITERATION AFTER WHICH ALTERNATE RESIDUAL IS USED              9
     MAXIMUM EQUILIBRIUM ITERATIONS ALLOWED                                   16
     EQUILIBRIUM ITERATION COUNT FOR CUT-BACK IN NEXT INCREMENT               10
     MAXIMUM EQUILIB. ITERS IN TWO INCREMENTS FOR TIME INCREMENT INCREASE      4
     MAXIMUM ITERATIONS FOR SEVERE DISCONTINUITIES                            50
     MAXIMUM ATTEMPTS ALLOWED IN AN INCREMENT                                  5
     MAXIMUM DISCON. ITERS IN TWO INCREMENTS FOR TIME INCREMENT INCREASE      50
     MAXIMUM CONTACT AUGMENTATIONS FOR *SURFACE BEHAVIOR,AUGMENTED LAGRANGE   50
     CUT-BACK FACTOR AFTER DIVERGENCE                                 0.2500    
     CUT-BACK FACTOR FOR TOO SLOW CONVERGENCE                         0.5000    
     CUT-BACK FACTOR AFTER TOO MANY EQUILIBRIUM ITERATIONS            0.7500    
     CUT-BACK FACTOR AFTER TOO MANY SEVERE DISCONTINUITY ITERATIONS   0.2500    
     CUT-BACK FACTOR AFTER PROBLEMS IN ELEMENT ASSEMBLY               0.2500    
     INCREASE FACTOR AFTER TWO INCREMENTS THAT CONVERGE QUICKLY        1.500    
     MAX. TIME INCREMENT INCREASE FACTOR ALLOWED                       1.500    
     MAX. TIME INCREMENT INCREASE FACTOR ALLOWED (DYNAMICS)            1.250    
     MAX. TIME INCREMENT INCREASE FACTOR ALLOWED (DIFFUSION)           2.000    
     MINIMUM TIME INCREMENT RATIO FOR EXTRAPOLATION TO OCCUR          0.1000    
     MAX. RATIO OF TIME INCREMENT TO STABILITY LIMIT                   1.000    
     FRACTION OF STABILITY LIMIT FOR NEW TIME INCREMENT               0.9500    
     TIME INCREMENT INCREASE FACTOR BEFORE A TIME POINT                1.000    
     GLOBAL STABILIZATION CONTROL IS NOT USED

          PRINT OF INCREMENT NUMBER, TIME, ETC., EVERY    1  INCREMENTS

     THE MAXIMUM NUMBER OF INCREMENTS IN THIS STEP IS                   10000

          LARGE DISPLACEMENT THEORY WILL BE USED

     LINEAR EXTRAPOLATION WILL BE USED

     CHARACTERISTIC ELEMENT LENGTH     0.758    

     DETAILS REGARDING ACTUAL SOLUTION WAVEFRONT REQUESTED

     DETAILED OUTPUT OF DIAGNOSTICS TO DATABASE REQUESTED

     PRINT OF INCREMENT NUMBER, TIME, ETC., TO THE MESSAGE FILE EVERY     1  INCREMENTS

     COLLECTING MODEL CONSTRAINT INFORMATION FOR OVERCONSTRAINT CHECKS

     COLLECTING STEP CONSTRAINT INFORMATION FOR OVERCONSTRAINT CHECKS


  INCREMENT     1 STARTS. ATTEMPT NUMBER  1, TIME INCREMENT  1.000E-04
 
	REGULARIZED SYMMETRIC DIRECT SPARSE SOLVER RUNNING ON
 	1 HOST:        1 MPI RANK  x 1 THREAD
 	NUMBER OF EQUATIONS:     5820
 	NUMBER OF RHS:           1
 	NUMBER OF FLOPS:         5.704e+08

     CHECK POINT   START OF SOLVER    

     CHECK POINT  END OF SOLVER       

       ELAPSED USER TIME (SEC)      =  0.10000    
       ELAPSED SYSTEM TIME (SEC)    =   0.0000    
       ELAPSED TOTAL CPU TIME (SEC) =  0.10000    
       ELAPSED WALLCLOCK TIME (SEC) =          0

               CONVERGENCE CHECKS FOR EQUILIBRIUM ITERATION     1


 AVERAGE FORCE                      2.557E-07   TIME AVG. FORCE       2.557E-07
 LARGEST RESIDUAL FORCE             8.471E-12   AT NODE        198   DOF  1
   INSTANCE: CUBE-1                                                                          
 LARGEST INCREMENT OF DISP.         5.000E-05   AT NODE          5   DOF  2
   INSTANCE: CUBE-1                                                                          
 LARGEST CORRECTION TO DISP.        5.000E-05   AT NODE          5   DOF  2
   INSTANCE: CUBE-1                                                                          
          DISP.    CORRECTION TOO LARGE COMPARED TO DISP.    INCREMENT

 AVERAGE PR. FLUX                   9.132E-11   TIME AVG. PR. FLUX    1.000E-02
 LARGEST RESIDUAL PR. FLUX          5.302E-09   AT NODE        614
   INSTANCE: CUBE-1                                                                          
 LARGEST INCREMENT OF VOL. LM.      5.976E-08   AT NODE          2
   INSTANCE: CUBE-1                                                                          
 LARGEST CORRECTION TO VOL. LM.     5.976E-08   AT NODE          2
   INSTANCE: CUBE-1                                                                          
          THERE IS ZERO PR. FLUX  EVERYWHERE
 

 ***WARNING: THERE IS ZERO PR. FLUX EVERYWHERE IN THE MODEL BASED ON THE 
             DEFAULT CRITERION. PLEASE CHECK THE VALUE OF THE AVERAGE PR. FLUX 
             DURING THE CURRENT ITERATION TO VERIFY THAT THE PR. FLUX IS SMALL 
             ENOUGH TO BE TREATED AS ZERO. IF NOT, PLEASE USE THE SOLUTION 
             CONTROLS TO RESET THE CRITERION FOR ZERO PR. FLUX.
 
	REGULARIZED SYMMETRIC DIRECT SPARSE SOLVER RUNNING ON
 	1 HOST:        1 MPI RANK  x 1 THREAD
 	NUMBER OF EQUATIONS:     5820
 	NUMBER OF RHS:           1
 	NUMBER OF FLOPS:         5.704e+08

     CHECK POINT   START OF SOLVER    

     CHECK POINT  END OF SOLVER       

       ELAPSED USER TIME (SEC)      =   0.0000    
       ELAPSED SYSTEM TIME (SEC)    =   0.0000    
       ELAPSED TOTAL CPU TIME (SEC) =   0.0000    
       ELAPSED WALLCLOCK TIME (SEC) =          0

               CONVERGENCE CHECKS FOR EQUILIBRIUM ITERATION     2


 AVERAGE FORCE                      2.557E-07   TIME AVG. FORCE       2.557E-07
 LARGEST RESIDUAL FORCE            -2.225E-17   AT NODE        198   DOF  1
   INSTANCE: CUBE-1                                                                          
 LARGEST INCREMENT OF DISP.         5.000E-05   AT NODE          5   DOF  2
   INSTANCE: CUBE-1                                                                          
 LARGEST CORRECTION TO DISP.        4.942E-10   AT NODE         44   DOF  1
   INSTANCE: CUBE-1                                                                          
          THE FORCE     EQUILIBRIUM EQUATIONS HAVE CONVERGED

 AVERAGE PR. FLUX                   1.020E-16   TIME AVG. PR. FLUX    1.000E-02
 LARGEST RESIDUAL PR. FLUX          5.922E-15   AT NODE        614
   INSTANCE: CUBE-1                                                                          
 LARGEST INCREMENT OF VOL. LM.      5.976E-08   AT NODE          2
   INSTANCE: CUBE-1                                                                          
 LARGEST CORRECTION TO VOL. LM.    -5.648E-13   AT NODE        844
   INSTANCE: CUBE-1                                                                          
          THERE IS ZERO PR. FLUX  EVERYWHERE
 

 ***WARNING: THERE IS ZERO PR. FLUX EVERYWHERE IN THE MODEL BASED ON THE 
             DEFAULT CRITERION. PLEASE CHECK THE VALUE OF THE AVERAGE PR. FLUX 
             DURING THE CURRENT ITERATION TO VERIFY THAT THE PR. FLUX IS SMALL 
             ENOUGH TO BE TREATED AS ZERO. IF NOT, PLEASE USE THE SOLUTION 
             CONTROLS TO RESET THE CRITERION FOR ZERO PR. FLUX.

 ITERATION SUMMARY FOR THE INCREMENT:   2 TOTAL ITERATIONS, OF WHICH
   0 ARE SEVERE DISCONTINUITY ITERATIONS AND  2 ARE EQUILIBRIUM ITERATIONS.

 TIME INCREMENT COMPLETED  1.000E-04,  FRACTION OF STEP COMPLETED  1.000E-04
 STEP TIME COMPLETED       1.000E-04,  TOTAL TIME COMPLETED        1.000E-04


  INCREMENT     2 STARTS. ATTEMPT NUMBER  1, TIME INCREMENT  1.000E-04
 
	REGULARIZED SYMMETRIC DIRECT SPARSE SOLVER RUNNING ON
 	1 HOST:        1 MPI RANK  x 1 THREAD
 	NUMBER OF EQUATIONS:     5820
 	NUMBER OF RHS:           1
 	NUMBER OF FLOPS:         5.704e+08

     CHECK POINT   START OF SOLVER    

     CHECK POINT  END OF SOLVER       

       ELAPSED USER TIME (SEC)      =  0.10000    
       ELAPSED SYSTEM TIME (SEC)    =   0.0000    
       ELAPSED TOTAL CPU TIME (SEC) =  0.10000    
       ELAPSED WALLCLOCK TIME (SEC) =          0

               CONVERGENCE CHECKS FOR EQUILIBRIUM ITERATION     1


 AVERAGE FORCE                      8.473E-07   TIME AVG. FORCE       5.515E-07
 LARGEST RESIDUAL FORCE             2.761E-17   AT NODE        757   DOF  3
   INSTANCE: CUBE-1                                                                          
 LARGEST INCREMENT OF DISP.         5.000E-05   AT NODE          5   DOF  2
   INSTANCE: CUBE-1                                                                          
 LARGEST CORRECTION TO DISP.        9.883E-10   AT NODE          1   DOF  1
   INSTANCE: CUBE-1                                                                          
          THE FORCE     EQUILIBRIUM RESPONSE WAS LINEAR IN THIS INCREMENT

 AVERAGE PR. FLUX                   5.185E-19   TIME AVG. PR. FLUX    1.000E-02
 LARGEST RESIDUAL PR. FLUX         -1.142E-15   AT NODE       1099
   INSTANCE: CUBE-1                                                                          
 LARGEST INCREMENT OF VOL. LM.      5.976E-08   AT NODE        844
   INSTANCE: CUBE-1                                                                          
 LARGEST CORRECTION TO VOL. LM.    -1.130E-12   AT NODE          2
   INSTANCE: CUBE-1                                                                          
          THERE IS ZERO PR. FLUX  EVERYWHERE
 

 ***WARNING: THERE IS ZERO PR. FLUX EVERYWHERE IN THE MODEL BASED ON THE 
             DEFAULT CRITERION. PLEASE CHECK THE VALUE OF THE AVERAGE PR. FLUX 
             DURING THE CURRENT ITERATION TO VERIFY THAT THE PR. FLUX IS SMALL 
             ENOUGH TO BE TREATED AS ZERO. IF NOT, PLEASE USE THE SOLUTION 
             CONTROLS TO RESET THE CRITERION FOR ZERO PR. FLUX.
          TIME INCREMENT MAY NOW INCREASE TO    1.500E-04

 ITERATION SUMMARY FOR THE INCREMENT:   1 TOTAL ITERATIONS, OF WHICH
   0 ARE SEVERE DISCONTINUITY ITERATIONS AND  1 ARE EQUILIBRIUM ITERATIONS.

 TIME INCREMENT COMPLETED  1.000E-04,  FRACTION OF STEP COMPLETED  2.000E-04
 STEP TIME COMPLETED       2.000E-04,  TOTAL TIME COMPLETED        2.000E-04


  INCREMENT     3 STARTS. ATTEMPT NUMBER  1, TIME INCREMENT  1.500E-04
 
	REGULARIZED SYMMETRIC DIRECT SPARSE SOLVER RUNNING ON
 	1 HOST:        1 MPI RANK  x 1 THREAD
 	NUMBER OF EQUATIONS:     5820
 	NUMBER OF RHS:           1
 	NUMBER OF FLOPS:         5.704e+08

     CHECK POINT   START OF SOLVER    

     CHECK POINT  END OF SOLVER       

       ELAPSED USER TIME (SEC)      =   0.0000    
       ELAPSED SYSTEM TIME (SEC)    =   0.0000    
       ELAPSED TOTAL CPU TIME (SEC) =   0.0000    
       ELAPSED WALLCLOCK TIME (SEC) =          0

               CONVERGENCE CHECKS FOR EQUILIBRIUM ITERATION     1


 AVERAGE FORCE                      1.483E-06   TIME AVG. FORCE       8.619E-07
 LARGEST RESIDUAL FORCE             1.664E-17   AT NODE       1099   DOF  3
   INSTANCE: CUBE-1                                                                          
 LARGEST INCREMENT OF DISP.         7.500E-05   AT NODE          5   DOF  2
   INSTANCE: CUBE-1                                                                          
 LARGEST CORRECTION TO DISP.        1.853E-09   AT NODE        100   DOF  1
   INSTANCE: CUBE-1                                                                          
          THE FORCE     EQUILIBRIUM RESPONSE WAS LINEAR IN THIS INCREMENT

 AVERAGE PR. FLUX                   1.013E-16   TIME AVG. PR. FLUX    1.000E-02
 LARGEST RESIDUAL PR. FLUX          5.922E-15   AT NODE        614
   INSTANCE: CUBE-1                                                                          
 LARGEST INCREMENT OF VOL. LM.      8.964E-08   AT NODE         46
   INSTANCE: CUBE-1                                                                          
 LARGEST CORRECTION TO VOL. LM.    -2.118E-12   AT NODE         18
   INSTANCE: CUBE-1                                                                          
          THERE IS ZERO PR. FLUX  EVERYWHERE
 

 ***WARNING: THERE IS ZERO PR. FLUX EVERYWHERE IN THE MODEL BASED ON THE 
             DEFAULT CRITERION. PLEASE CHECK THE VALUE OF THE AVERAGE PR. FLUX 
             DURING THE CURRENT ITERATION TO VERIFY THAT THE PR. FLUX IS SMALL 
             ENOUGH TO BE TREATED AS ZERO. IF NOT, PLEASE USE THE SOLUTION 
             CONTROLS TO RESET THE CRITERION FOR ZERO PR. FLUX.
          TIME INCREMENT MAY NOW INCREASE TO    2.250E-04

 ITERATION SUMMARY FOR THE INCREMENT:   1 TOTAL ITERATIONS, OF WHICH
   0 ARE SEVERE DISCONTINUITY ITERATIONS AND  1 ARE EQUILIBRIUM ITERATIONS.

 TIME INCREMENT COMPLETED  1.500E-04,  FRACTION OF STEP COMPLETED  3.500E-04
 STEP TIME COMPLETED       3.500E-04,  TOTAL TIME COMPLETED        3.500E-04


  INCREMENT     4 STARTS. ATTEMPT NUMBER  1, TIME INCREMENT  2.250E-04
 
	REGULARIZED SYMMETRIC DIRECT SPARSE SOLVER RUNNING ON
 	1 HOST:        1 MPI RANK  x 1 THREAD
 	NUMBER OF EQUATIONS:     5820
 	NUMBER OF RHS:           1
 	NUMBER OF FLOPS:         5.704e+08

     CHECK POINT   START OF SOLVER    

     CHECK POINT  END OF SOLVER       

       ELAPSED USER TIME (SEC)      =   0.0000    
       ELAPSED SYSTEM TIME (SEC)    =   0.0000    
       ELAPSED TOTAL CPU TIME (SEC) =   0.0000    
       ELAPSED WALLCLOCK TIME (SEC) =          0

               CONVERGENCE CHECKS FOR EQUILIBRIUM ITERATION     1


 AVERAGE FORCE                      2.436E-06   TIME AVG. FORCE       1.255E-06
 LARGEST RESIDUAL FORCE             3.721E-17   AT NODE       1189   DOF  2
   INSTANCE: CUBE-1                                                                          
 LARGEST INCREMENT OF DISP.         1.125E-04   AT NODE          5   DOF  2
   INSTANCE: CUBE-1                                                                          
 LARGEST CORRECTION TO DISP.        4.169E-09   AT NODE          7   DOF  1
   INSTANCE: CUBE-1                                                                          
          THE FORCE     EQUILIBRIUM RESPONSE WAS LINEAR IN THIS INCREMENT

 AVERAGE PR. FLUX                   2.501E-18   TIME AVG. PR. FLUX    1.000E-02
 LARGEST RESIDUAL PR. FLUX         -2.862E-15   AT NODE       1191
   INSTANCE: CUBE-1                                                                          
 LARGEST INCREMENT OF VOL. LM.      1.345E-07   AT NODE         45
   INSTANCE: CUBE-1                                                                          
 LARGEST CORRECTION TO VOL. LM.    -4.764E-12   AT NODE         46
   INSTANCE: CUBE-1                                                                          
          THERE IS ZERO PR. FLUX  EVERYWHERE
 

 ***WARNING: THERE IS ZERO PR. FLUX EVERYWHERE IN THE MODEL BASED ON THE 
             DEFAULT CRITERION. PLEASE CHECK THE VALUE OF THE AVERAGE PR. FLUX 
             DURING THE CURRENT ITERATION TO VERIFY THAT THE PR. FLUX IS SMALL 
             ENOUGH TO BE TREATED AS ZERO. IF NOT, PLEASE USE THE SOLUTION 
             CONTROLS TO RESET THE CRITERION FOR ZERO PR. FLUX.
          TIME INCREMENT MAY NOW INCREASE TO    3.375E-04

 ITERATION SUMMARY FOR THE INCREMENT:   1 TOTAL ITERATIONS, OF WHICH
   0 ARE SEVERE DISCONTINUITY ITERATIONS AND  1 ARE EQUILIBRIUM ITERATIONS.

 TIME INCREMENT COMPLETED  2.250E-04,  FRACTION OF STEP COMPLETED  5.750E-04
 STEP TIME COMPLETED       5.750E-04,  TOTAL TIME COMPLETED        5.750E-04


  INCREMENT     5 STARTS. ATTEMPT NUMBER  1, TIME INCREMENT  3.375E-04
 
	REGULARIZED SYMMETRIC DIRECT SPARSE SOLVER RUNNING ON
 	1 HOST:        1 MPI RANK  x 1 THREAD
 	NUMBER OF EQUATIONS:     5820
 	NUMBER OF RHS:           1
 	NUMBER OF FLOPS:         5.704e+08

     CHECK POINT   START OF SOLVER    

     CHECK POINT  END OF SOLVER       

       ELAPSED USER TIME (SEC)      =  0.10000    
       ELAPSED SYSTEM TIME (SEC)    =   0.0000    
       ELAPSED TOTAL CPU TIME (SEC) =  0.10000    
       ELAPSED WALLCLOCK TIME (SEC) =          0

               CONVERGENCE CHECKS FOR EQUILIBRIUM ITERATION     1


 AVERAGE FORCE                      3.865E-06   TIME AVG. FORCE       1.777E-06
 LARGEST RESIDUAL FORCE             9.705E-17   AT NODE        614   DOF  2
   INSTANCE: CUBE-1                                                                          
 LARGEST INCREMENT OF DISP.         1.688E-04   AT NODE          5   DOF  2
   INSTANCE: CUBE-1                                                                          
 LARGEST CORRECTION TO DISP.        9.380E-09   AT NODE          1   DOF  1
   INSTANCE: CUBE-1                                                                          
          THE FORCE     EQUILIBRIUM RESPONSE WAS LINEAR IN THIS INCREMENT

 AVERAGE PR. FLUX                   4.143E-17   TIME AVG. PR. FLUX    1.000E-02
 LARGEST RESIDUAL PR. FLUX         -6.762E-15   AT NODE       1216
   INSTANCE: CUBE-1                                                                          
 LARGEST INCREMENT OF VOL. LM.      2.017E-07   AT NODE         19
   INSTANCE: CUBE-1                                                                          
 LARGEST CORRECTION TO VOL. LM.    -1.072E-11   AT NODE         17
   INSTANCE: CUBE-1                                                                          
          THERE IS ZERO PR. FLUX  EVERYWHERE
 

 ***WARNING: THERE IS ZERO PR. FLUX EVERYWHERE IN THE MODEL BASED ON THE 
             DEFAULT CRITERION. PLEASE CHECK THE VALUE OF THE AVERAGE PR. FLUX 
             DURING THE CURRENT ITERATION TO VERIFY THAT THE PR. FLUX IS SMALL 
             ENOUGH TO BE TREATED AS ZERO. IF NOT, PLEASE USE THE SOLUTION 
             CONTROLS TO RESET THE CRITERION FOR ZERO PR. FLUX.
          TIME INCREMENT MAY NOW INCREASE TO    5.062E-04

 ITERATION SUMMARY FOR THE INCREMENT:   1 TOTAL ITERATIONS, OF WHICH
   0 ARE SEVERE DISCONTINUITY ITERATIONS AND  1 ARE EQUILIBRIUM ITERATIONS.

 TIME INCREMENT COMPLETED  3.375E-04,  FRACTION OF STEP COMPLETED  9.125E-04
 STEP TIME COMPLETED       9.125E-04,  TOTAL TIME COMPLETED        9.125E-04


  INCREMENT     6 STARTS. ATTEMPT NUMBER  1, TIME INCREMENT  5.062E-04
 
	REGULARIZED SYMMETRIC DIRECT SPARSE SOLVER RUNNING ON
 	1 HOST:        1 MPI RANK  x 1 THREAD
 	NUMBER OF EQUATIONS:     5820
 	NUMBER OF RHS:           1
 	NUMBER OF FLOPS:         5.704e+08

     CHECK POINT   START OF SOLVER    

     CHECK POINT  END OF SOLVER       

       ELAPSED USER TIME (SEC)      =  0.10000    
       ELAPSED SYSTEM TIME (SEC)    =   0.0000    
       ELAPSED TOTAL CPU TIME (SEC) =  0.10000    
       ELAPSED WALLCLOCK TIME (SEC) =          0

               CONVERGENCE CHECKS FOR EQUILIBRIUM ITERATION     1


 AVERAGE FORCE                      6.009E-06   TIME AVG. FORCE       2.483E-06
 LARGEST RESIDUAL FORCE             1.122E-16   AT NODE        670   DOF  1
   INSTANCE: CUBE-1                                                                          
 LARGEST INCREMENT OF DISP.         2.531E-04   AT NODE          5   DOF  2
   INSTANCE: CUBE-1                                                                          
 LARGEST CORRECTION TO DISP.        2.110E-08   AT NODE        107   DOF  1
   INSTANCE: CUBE-1                                                                          
          THE FORCE     EQUILIBRIUM RESPONSE WAS LINEAR IN THIS INCREMENT

 AVERAGE PR. FLUX                   3.012E-17   TIME AVG. PR. FLUX    1.000E-02
 LARGEST RESIDUAL PR. FLUX         -5.954E-15   AT NODE       1139
   INSTANCE: CUBE-1                                                                          
 LARGEST INCREMENT OF VOL. LM.      3.025E-07   AT NODE        114
   INSTANCE: CUBE-1                                                                          
 LARGEST CORRECTION TO VOL. LM.    -2.411E-11   AT NODE       1430
   INSTANCE: CUBE-1                                                                          
          THERE IS ZERO PR. FLUX  EVERYWHERE
 

 ***WARNING: THERE IS ZERO PR. FLUX EVERYWHERE IN THE MODEL BASED ON THE 
             DEFAULT CRITERION. PLEASE CHECK THE VALUE OF THE AVERAGE PR. FLUX 
             DURING THE CURRENT ITERATION TO VERIFY THAT THE PR. FLUX IS SMALL 
             ENOUGH TO BE TREATED AS ZERO. IF NOT, PLEASE USE THE SOLUTION 
             CONTROLS TO RESET THE CRITERION FOR ZERO PR. FLUX.
          TIME INCREMENT MAY NOW INCREASE TO    7.594E-04

 ITERATION SUMMARY FOR THE INCREMENT:   1 TOTAL ITERATIONS, OF WHICH
   0 ARE SEVERE DISCONTINUITY ITERATIONS AND  1 ARE EQUILIBRIUM ITERATIONS.

 TIME INCREMENT COMPLETED  5.062E-04,  FRACTION OF STEP COMPLETED  1.419E-03
 STEP TIME COMPLETED       1.419E-03,  TOTAL TIME COMPLETED        1.419E-03


  INCREMENT     7 STARTS. ATTEMPT NUMBER  1, TIME INCREMENT  7.594E-04
 
	REGULARIZED SYMMETRIC DIRECT SPARSE SOLVER RUNNING ON
 	1 HOST:        1 MPI RANK  x 1 THREAD
 	NUMBER OF EQUATIONS:     5820
 	NUMBER OF RHS:           1
 	NUMBER OF FLOPS:         5.704e+08

     CHECK POINT   START OF SOLVER    

     CHECK POINT  END OF SOLVER       

       ELAPSED USER TIME (SEC)      =  0.10000    
       ELAPSED SYSTEM TIME (SEC)    =   0.0000    
       ELAPSED TOTAL CPU TIME (SEC) =  0.10000    
       ELAPSED WALLCLOCK TIME (SEC) =          0

               CONVERGENCE CHECKS FOR EQUILIBRIUM ITERATION     1


 AVERAGE FORCE                      9.225E-06   TIME AVG. FORCE       3.446E-06
 LARGEST RESIDUAL FORCE            -8.328E-17   AT NODE        726   DOF  2
   INSTANCE: CUBE-1                                                                          
 LARGEST INCREMENT OF DISP.         3.797E-04   AT NODE          5   DOF  2
   INSTANCE: CUBE-1                                                                          
 LARGEST CORRECTION TO DISP.        4.747E-08   AT NODE         36   DOF  1
   INSTANCE: CUBE-1                                                                          
          THE FORCE     EQUILIBRIUM RESPONSE WAS LINEAR IN THIS INCREMENT

 AVERAGE PR. FLUX                   1.846E-16   TIME AVG. PR. FLUX    1.000E-02
 LARGEST RESIDUAL PR. FLUX         -1.138E-14   AT NODE        801
   INSTANCE: CUBE-1                                                                          
 LARGEST INCREMENT OF VOL. LM.      4.537E-07   AT NODE         12
   INSTANCE: CUBE-1                                                                          
 LARGEST CORRECTION TO VOL. LM.    -5.422E-11   AT NODE        114
   INSTANCE: CUBE-1                                                                          
          THERE IS ZERO PR. FLUX  EVERYWHERE
 

 ***WARNING: THERE IS ZERO PR. FLUX EVERYWHERE IN THE MODEL BASED ON THE 
             DEFAULT CRITERION. PLEASE CHECK THE VALUE OF THE AVERAGE PR. FLUX 
             DURING THE CURRENT ITERATION TO VERIFY THAT THE PR. FLUX IS SMALL 
             ENOUGH TO BE TREATED AS ZERO. IF NOT, PLEASE USE THE SOLUTION 
             CONTROLS TO RESET THE CRITERION FOR ZERO PR. FLUX.
          TIME INCREMENT MAY NOW INCREASE TO    1.139E-03

 ITERATION SUMMARY FOR THE INCREMENT:   1 TOTAL ITERATIONS, OF WHICH
   0 ARE SEVERE DISCONTINUITY ITERATIONS AND  1 ARE EQUILIBRIUM ITERATIONS.

 TIME INCREMENT COMPLETED  7.594E-04,  FRACTION OF STEP COMPLETED  2.178E-03
 STEP TIME COMPLETED       2.178E-03,  TOTAL TIME COMPLETED        2.178E-03


  INCREMENT     8 STARTS. ATTEMPT NUMBER  1, TIME INCREMENT  1.139E-03
 
	REGULARIZED SYMMETRIC DIRECT SPARSE SOLVER RUNNING ON
 	1 HOST:        1 MPI RANK  x 1 THREAD
 	NUMBER OF EQUATIONS:     5820
 	NUMBER OF RHS:           1
 	NUMBER OF FLOPS:         5.704e+08

     CHECK POINT   START OF SOLVER    

     CHECK POINT  END OF SOLVER       

       ELAPSED USER TIME (SEC)      =  0.10000    
       ELAPSED SYSTEM TIME (SEC)    =   0.0000    
       ELAPSED TOTAL CPU TIME (SEC) =  0.10000    
       ELAPSED WALLCLOCK TIME (SEC) =          0

               CONVERGENCE CHECKS FOR EQUILIBRIUM ITERATION     1


 AVERAGE FORCE                      1.405E-05   TIME AVG. FORCE       4.771E-06
 LARGEST RESIDUAL FORCE             1.112E-16   AT NODE        364   DOF  1
   INSTANCE: CUBE-1                                                                          
 LARGEST INCREMENT OF DISP.         5.695E-04   AT NODE          5   DOF  2
   INSTANCE: CUBE-1                                                                          
 LARGEST CORRECTION TO DISP.        1.068E-07   AT NODE        106   DOF  1
   INSTANCE: CUBE-1                                                                          
          THE FORCE     EQUILIBRIUM RESPONSE WAS LINEAR IN THIS INCREMENT

 AVERAGE PR. FLUX                   3.984E-17   TIME AVG. PR. FLUX    1.000E-02
 LARGEST RESIDUAL PR. FLUX          3.591E-15   AT NODE        856
   INSTANCE: CUBE-1                                                                          
 LARGEST INCREMENT OF VOL. LM.      6.804E-07   AT NODE        120
   INSTANCE: CUBE-1                                                                          
 LARGEST CORRECTION TO VOL. LM.    -1.219E-10   AT NODE         12
   INSTANCE: CUBE-1                                                                          
          THERE IS ZERO PR. FLUX  EVERYWHERE
 

 ***WARNING: THERE IS ZERO PR. FLUX EVERYWHERE IN THE MODEL BASED ON THE 
             DEFAULT CRITERION. PLEASE CHECK THE VALUE OF THE AVERAGE PR. FLUX 
             DURING THE CURRENT ITERATION TO VERIFY THAT THE PR. FLUX IS SMALL 
             ENOUGH TO BE TREATED AS ZERO. IF NOT, PLEASE USE THE SOLUTION 
             CONTROLS TO RESET THE CRITERION FOR ZERO PR. FLUX.
          TIME INCREMENT MAY NOW INCREASE TO    1.709E-03

 ITERATION SUMMARY FOR THE INCREMENT:   1 TOTAL ITERATIONS, OF WHICH
   0 ARE SEVERE DISCONTINUITY ITERATIONS AND  1 ARE EQUILIBRIUM ITERATIONS.

 TIME INCREMENT COMPLETED  1.139E-03,  FRACTION OF STEP COMPLETED  3.317E-03
 STEP TIME COMPLETED       3.317E-03,  TOTAL TIME COMPLETED        3.317E-03


  INCREMENT     9 STARTS. ATTEMPT NUMBER  1, TIME INCREMENT  1.709E-03
 
	REGULARIZED SYMMETRIC DIRECT SPARSE SOLVER RUNNING ON
 	1 HOST:        1 MPI RANK  x 1 THREAD
 	NUMBER OF EQUATIONS:     5820
 	NUMBER OF RHS:           1
 	NUMBER OF FLOPS:         5.704e+08

     CHECK POINT   START OF SOLVER    

     CHECK POINT  END OF SOLVER       

       ELAPSED USER TIME (SEC)      =  0.10000    
       ELAPSED SYSTEM TIME (SEC)    =   0.0000    
       ELAPSED TOTAL CPU TIME (SEC) =  0.10000    
       ELAPSED WALLCLOCK TIME (SEC) =          0

               CONVERGENCE CHECKS FOR EQUILIBRIUM ITERATION     1


 AVERAGE FORCE                      2.128E-05   TIME AVG. FORCE       6.605E-06
 LARGEST RESIDUAL FORCE             5.163E-16   AT NODE        380   DOF  1
   INSTANCE: CUBE-1                                                                          
 LARGEST INCREMENT OF DISP.         8.543E-04   AT NODE          5   DOF  2
   INSTANCE: CUBE-1                                                                          
 LARGEST CORRECTION TO DISP.        2.402E-07   AT NODE        377   DOF  1
   INSTANCE: CUBE-1                                                                          
          THE FORCE     EQUILIBRIUM RESPONSE WAS LINEAR IN THIS INCREMENT

 AVERAGE PR. FLUX                   6.994E-17   TIME AVG. PR. FLUX    1.000E-02
 LARGEST RESIDUAL PR. FLUX          5.920E-15   AT NODE        749
   INSTANCE: CUBE-1                                                                          
 LARGEST INCREMENT OF VOL. LM.      1.020E-06   AT NODE         12
   INSTANCE: CUBE-1                                                                          
 LARGEST CORRECTION TO VOL. LM.    -2.741E-10   AT NODE        120
   INSTANCE: CUBE-1                                                                          
          THERE IS ZERO PR. FLUX  EVERYWHERE
 

 ***WARNING: THERE IS ZERO PR. FLUX EVERYWHERE IN THE MODEL BASED ON THE 
             DEFAULT CRITERION. PLEASE CHECK THE VALUE OF THE AVERAGE PR. FLUX 
             DURING THE CURRENT ITERATION TO VERIFY THAT THE PR. FLUX IS SMALL 
             ENOUGH TO BE TREATED AS ZERO. IF NOT, PLEASE USE THE SOLUTION 
             CONTROLS TO RESET THE CRITERION FOR ZERO PR. FLUX.
          TIME INCREMENT MAY NOW INCREASE TO    2.563E-03

 ITERATION SUMMARY FOR THE INCREMENT:   1 TOTAL ITERATIONS, OF WHICH
   0 ARE SEVERE DISCONTINUITY ITERATIONS AND  1 ARE EQUILIBRIUM ITERATIONS.

 TIME INCREMENT COMPLETED  1.709E-03,  FRACTION OF STEP COMPLETED  5.026E-03
 STEP TIME COMPLETED       5.026E-03,  TOTAL TIME COMPLETED        5.026E-03


  INCREMENT    10 STARTS. ATTEMPT NUMBER  1, TIME INCREMENT  2.563E-03
 
	REGULARIZED SYMMETRIC DIRECT SPARSE SOLVER RUNNING ON
 	1 HOST:        1 MPI RANK  x 1 THREAD
 	NUMBER OF EQUATIONS:     5820
 	NUMBER OF RHS:           1
 	NUMBER OF FLOPS:         5.704e+08

     CHECK POINT   START OF SOLVER    

     CHECK POINT  END OF SOLVER       

       ELAPSED USER TIME (SEC)      =  0.10000    
       ELAPSED SYSTEM TIME (SEC)    =   0.0000    
       ELAPSED TOTAL CPU TIME (SEC) =  0.10000    
       ELAPSED WALLCLOCK TIME (SEC) =          0

               CONVERGENCE CHECKS FOR EQUILIBRIUM ITERATION     1


 AVERAGE FORCE                      3.211E-05   TIME AVG. FORCE       9.155E-06
 LARGEST RESIDUAL FORCE             2.506E-15   AT NODE        422   DOF  1
   INSTANCE: CUBE-1                                                                          
 LARGEST INCREMENT OF DISP.         1.281E-03   AT NODE          5   DOF  2
   INSTANCE: CUBE-1                                                                          
 LARGEST CORRECTION TO DISP.        5.402E-07   AT NODE          4   DOF  1
   INSTANCE: CUBE-1                                                                          
          THE FORCE     EQUILIBRIUM RESPONSE WAS LINEAR IN THIS INCREMENT

 AVERAGE PR. FLUX                   3.521E-17   TIME AVG. PR. FLUX    1.000E-02
 LARGEST RESIDUAL PR. FLUX          4.013E-15   AT NODE        736
   INSTANCE: CUBE-1                                                                          
 LARGEST INCREMENT OF VOL. LM.      1.530E-06   AT NODE         52
   INSTANCE: CUBE-1                                                                          
 LARGEST CORRECTION TO VOL. LM.    -6.159E-10   AT NODE         12
   INSTANCE: CUBE-1                                                                          
          THERE IS ZERO PR. FLUX  EVERYWHERE
 

 ***WARNING: THERE IS ZERO PR. FLUX EVERYWHERE IN THE MODEL BASED ON THE 
             DEFAULT CRITERION. PLEASE CHECK THE VALUE OF THE AVERAGE PR. FLUX 
             DURING THE CURRENT ITERATION TO VERIFY THAT THE PR. FLUX IS SMALL 
             ENOUGH TO BE TREATED AS ZERO. IF NOT, PLEASE USE THE SOLUTION 
             CONTROLS TO RESET THE CRITERION FOR ZERO PR. FLUX.
          TIME INCREMENT MAY NOW INCREASE TO    3.844E-03

 ITERATION SUMMARY FOR THE INCREMENT:   1 TOTAL ITERATIONS, OF WHICH
   0 ARE SEVERE DISCONTINUITY ITERATIONS AND  1 ARE EQUILIBRIUM ITERATIONS.

 TIME INCREMENT COMPLETED  2.563E-03,  FRACTION OF STEP COMPLETED  7.589E-03
 STEP TIME COMPLETED       7.589E-03,  TOTAL TIME COMPLETED        7.589E-03


  INCREMENT    11 STARTS. ATTEMPT NUMBER  1, TIME INCREMENT  3.844E-03
 
	REGULARIZED SYMMETRIC DIRECT SPARSE SOLVER RUNNING ON
 	1 HOST:        1 MPI RANK  x 1 THREAD
 	NUMBER OF EQUATIONS:     5820
 	NUMBER OF RHS:           1
 	NUMBER OF FLOPS:         5.704e+08

     CHECK POINT   START OF SOLVER    

     CHECK POINT  END OF SOLVER       

       ELAPSED USER TIME (SEC)      =  0.10000    
       ELAPSED SYSTEM TIME (SEC)    =   0.0000    
       ELAPSED TOTAL CPU TIME (SEC) =  0.10000    
       ELAPSED WALLCLOCK TIME (SEC) =          0

               CONVERGENCE CHECKS FOR EQUILIBRIUM ITERATION     1


 AVERAGE FORCE                      4.835E-05   TIME AVG. FORCE       1.272E-05
 LARGEST RESIDUAL FORCE            -1.252E-14   AT NODE        244   DOF  1
   INSTANCE: CUBE-1                                                                          
 LARGEST INCREMENT OF DISP.         1.922E-03   AT NODE          5   DOF  2
   INSTANCE: CUBE-1                                                                          
 LARGEST CORRECTION TO DISP.        1.214E-06   AT NODE          8   DOF  1
   INSTANCE: CUBE-1                                                                          
          THE FORCE     EQUILIBRIUM RESPONSE WAS LINEAR IN THIS INCREMENT

 AVERAGE PR. FLUX                   8.977E-17   TIME AVG. PR. FLUX    1.000E-02
 LARGEST RESIDUAL PR. FLUX         -5.506E-15   AT NODE        641
   INSTANCE: CUBE-1                                                                          
 LARGEST INCREMENT OF VOL. LM.      2.293E-06   AT NODE       1402
   INSTANCE: CUBE-1                                                                          
 LARGEST CORRECTION TO VOL. LM.    -1.383E-09   AT NODE         52
   INSTANCE: CUBE-1                                                                          
          THERE IS ZERO PR. FLUX  EVERYWHERE
 

 ***WARNING: THERE IS ZERO PR. FLUX EVERYWHERE IN THE MODEL BASED ON THE 
             DEFAULT CRITERION. PLEASE CHECK THE VALUE OF THE AVERAGE PR. FLUX 
             DURING THE CURRENT ITERATION TO VERIFY THAT THE PR. FLUX IS SMALL 
             ENOUGH TO BE TREATED AS ZERO. IF NOT, PLEASE USE THE SOLUTION 
             CONTROLS TO RESET THE CRITERION FOR ZERO PR. FLUX.
          TIME INCREMENT MAY NOW INCREASE TO    5.767E-03

 ITERATION SUMMARY FOR THE INCREMENT:   1 TOTAL ITERATIONS, OF WHICH
   0 ARE SEVERE DISCONTINUITY ITERATIONS AND  1 ARE EQUILIBRIUM ITERATIONS.

 TIME INCREMENT COMPLETED  3.844E-03,  FRACTION OF STEP COMPLETED  1.143E-02
 STEP TIME COMPLETED       1.143E-02,  TOTAL TIME COMPLETED        1.143E-02


  INCREMENT    12 STARTS. ATTEMPT NUMBER  1, TIME INCREMENT  5.767E-03
 
	REGULARIZED SYMMETRIC DIRECT SPARSE SOLVER RUNNING ON
 	1 HOST:        1 MPI RANK  x 1 THREAD
 	NUMBER OF EQUATIONS:     5820
 	NUMBER OF RHS:           1
 	NUMBER OF FLOPS:         5.704e+08

     CHECK POINT   START OF SOLVER    

     CHECK POINT  END OF SOLVER       

       ELAPSED USER TIME (SEC)      =  0.10000    
       ELAPSED SYSTEM TIME (SEC)    =   0.0000    
       ELAPSED TOTAL CPU TIME (SEC) =  0.10000    
       ELAPSED WALLCLOCK TIME (SEC) =          0

               CONVERGENCE CHECKS FOR EQUILIBRIUM ITERATION     1


 AVERAGE FORCE                      7.267E-05   TIME AVG. FORCE       1.771E-05
 LARGEST RESIDUAL FORCE             6.343E-14   AT NODE        425   DOF  1
   INSTANCE: CUBE-1                                                                          
 LARGEST INCREMENT OF DISP.         2.883E-03   AT NODE          5   DOF  2
   INSTANCE: CUBE-1                                                                          
 LARGEST CORRECTION TO DISP.        2.729E-06   AT NODE        440   DOF  1
   INSTANCE: CUBE-1                                                                          
          THE FORCE     EQUILIBRIUM RESPONSE WAS LINEAR IN THIS INCREMENT

 AVERAGE PR. FLUX                   6.949E-17   TIME AVG. PR. FLUX    1.000E-02
 LARGEST RESIDUAL PR. FLUX          6.940E-15   AT NODE        705
   INSTANCE: CUBE-1                                                                          
 LARGEST INCREMENT OF VOL. LM.      3.437E-06   AT NODE        188
   INSTANCE: CUBE-1                                                                          
 LARGEST CORRECTION TO VOL. LM.    -3.102E-09   AT NODE       1402
   INSTANCE: CUBE-1                                                                          
          THERE IS ZERO PR. FLUX  EVERYWHERE
 

 ***WARNING: THERE IS ZERO PR. FLUX EVERYWHERE IN THE MODEL BASED ON THE 
             DEFAULT CRITERION. PLEASE CHECK THE VALUE OF THE AVERAGE PR. FLUX 
             DURING THE CURRENT ITERATION TO VERIFY THAT THE PR. FLUX IS SMALL 
             ENOUGH TO BE TREATED AS ZERO. IF NOT, PLEASE USE THE SOLUTION 
             CONTROLS TO RESET THE CRITERION FOR ZERO PR. FLUX.
          TIME INCREMENT MAY NOW INCREASE TO    8.650E-03

 ITERATION SUMMARY FOR THE INCREMENT:   1 TOTAL ITERATIONS, OF WHICH
   0 ARE SEVERE DISCONTINUITY ITERATIONS AND  1 ARE EQUILIBRIUM ITERATIONS.

 TIME INCREMENT COMPLETED  5.767E-03,  FRACTION OF STEP COMPLETED  1.720E-02
 STEP TIME COMPLETED       1.720E-02,  TOTAL TIME COMPLETED        1.720E-02


  INCREMENT    13 STARTS. ATTEMPT NUMBER  1, TIME INCREMENT  8.650E-03
 
	REGULARIZED SYMMETRIC DIRECT SPARSE SOLVER RUNNING ON
 	1 HOST:        1 MPI RANK  x 1 THREAD
 	NUMBER OF EQUATIONS:     5820
 	NUMBER OF RHS:           1
 	NUMBER OF FLOPS:         5.704e+08

     CHECK POINT   START OF SOLVER    

     CHECK POINT  END OF SOLVER       

       ELAPSED USER TIME (SEC)      =  0.10000    
       ELAPSED SYSTEM TIME (SEC)    =   0.0000    
       ELAPSED TOTAL CPU TIME (SEC) =  0.10000    
       ELAPSED WALLCLOCK TIME (SEC) =          0

               CONVERGENCE CHECKS FOR EQUILIBRIUM ITERATION     1


 AVERAGE FORCE                      1.091E-04   TIME AVG. FORCE       2.474E-05
 LARGEST RESIDUAL FORCE             3.212E-13   AT NODE        416   DOF  1
   INSTANCE: CUBE-1                                                                          
 LARGEST INCREMENT OF DISP.         4.325E-03   AT NODE          5   DOF  2
   INSTANCE: CUBE-1                                                                          
 LARGEST CORRECTION TO DISP.        6.129E-06   AT NODE        105   DOF  1
   INSTANCE: CUBE-1                                                                          
          THE FORCE     EQUILIBRIUM EQUATIONS HAVE CONVERGED

 AVERAGE PR. FLUX                   7.717E-17   TIME AVG. PR. FLUX    1.000E-02
 LARGEST RESIDUAL PR. FLUX         -5.433E-15   AT NODE        745
   INSTANCE: CUBE-1                                                                          
 LARGEST INCREMENT OF VOL. LM.      5.148E-06   AT NODE         13
   INSTANCE: CUBE-1                                                                          
 LARGEST CORRECTION TO VOL. LM.    -6.949E-09   AT NODE        188
   INSTANCE: CUBE-1                                                                          
          THERE IS ZERO PR. FLUX  EVERYWHERE
 

 ***WARNING: THERE IS ZERO PR. FLUX EVERYWHERE IN THE MODEL BASED ON THE 
             DEFAULT CRITERION. PLEASE CHECK THE VALUE OF THE AVERAGE PR. FLUX 
             DURING THE CURRENT ITERATION TO VERIFY THAT THE PR. FLUX IS SMALL 
             ENOUGH TO BE TREATED AS ZERO. IF NOT, PLEASE USE THE SOLUTION 
             CONTROLS TO RESET THE CRITERION FOR ZERO PR. FLUX.
          TIME INCREMENT MAY NOW INCREASE TO    1.000E-02

 ITERATION SUMMARY FOR THE INCREMENT:   1 TOTAL ITERATIONS, OF WHICH
   0 ARE SEVERE DISCONTINUITY ITERATIONS AND  1 ARE EQUILIBRIUM ITERATIONS.

 TIME INCREMENT COMPLETED  8.650E-03,  FRACTION OF STEP COMPLETED  2.585E-02
 STEP TIME COMPLETED       2.585E-02,  TOTAL TIME COMPLETED        2.585E-02


  INCREMENT    14 STARTS. ATTEMPT NUMBER  1, TIME INCREMENT  1.000E-02
 
	REGULARIZED SYMMETRIC DIRECT SPARSE SOLVER RUNNING ON
 	1 HOST:        1 MPI RANK  x 1 THREAD
 	NUMBER OF EQUATIONS:     5820
 	NUMBER OF RHS:           1
 	NUMBER OF FLOPS:         5.704e+08

     CHECK POINT   START OF SOLVER    

     CHECK POINT  END OF SOLVER       

       ELAPSED USER TIME (SEC)      =  0.10000    
       ELAPSED SYSTEM TIME (SEC)    =   0.0000    
       ELAPSED TOTAL CPU TIME (SEC) =  0.10000    
       ELAPSED WALLCLOCK TIME (SEC) =          0

               CONVERGENCE CHECKS FOR EQUILIBRIUM ITERATION     1


 AVERAGE FORCE                      1.510E-04   TIME AVG. FORCE       3.376E-05
 LARGEST RESIDUAL FORCE             7.183E-13   AT NODE        375   DOF  1
   INSTANCE: CUBE-1                                                                          
 LARGEST INCREMENT OF DISP.         5.000E-03   AT NODE          5   DOF  2
   INSTANCE: CUBE-1                                                                          
 LARGEST CORRECTION TO DISP.        9.145E-06   AT NODE         41   DOF  1
   INSTANCE: CUBE-1                                                                          
          THE FORCE     EQUILIBRIUM EQUATIONS HAVE CONVERGED

 AVERAGE PR. FLUX                   3.901E-17   TIME AVG. PR. FLUX    1.000E-02
 LARGEST RESIDUAL PR. FLUX          4.668E-15   AT NODE        708
   INSTANCE: CUBE-1                                                                          
 LARGEST INCREMENT OF VOL. LM.      5.942E-06   AT NODE       1201
   INSTANCE: CUBE-1                                                                          
 LARGEST CORRECTION TO VOL. LM.    -1.033E-08   AT NODE         13
   INSTANCE: CUBE-1                                                                          
          THERE IS ZERO PR. FLUX  EVERYWHERE
 

 ***WARNING: THERE IS ZERO PR. FLUX EVERYWHERE IN THE MODEL BASED ON THE 
             DEFAULT CRITERION. PLEASE CHECK THE VALUE OF THE AVERAGE PR. FLUX 
             DURING THE CURRENT ITERATION TO VERIFY THAT THE PR. FLUX IS SMALL 
             ENOUGH TO BE TREATED AS ZERO. IF NOT, PLEASE USE THE SOLUTION 
             CONTROLS TO RESET THE CRITERION FOR ZERO PR. FLUX.

 ITERATION SUMMARY FOR THE INCREMENT:   1 TOTAL ITERATIONS, OF WHICH
   0 ARE SEVERE DISCONTINUITY ITERATIONS AND  1 ARE EQUILIBRIUM ITERATIONS.

 TIME INCREMENT COMPLETED  1.000E-02,  FRACTION OF STEP COMPLETED  3.585E-02
 STEP TIME COMPLETED       3.585E-02,  TOTAL TIME COMPLETED        3.585E-02


  INCREMENT    15 STARTS. ATTEMPT NUMBER  1, TIME INCREMENT  1.000E-02
 
	REGULARIZED SYMMETRIC DIRECT SPARSE SOLVER RUNNING ON
 	1 HOST:        1 MPI RANK  x 1 THREAD
 	NUMBER OF EQUATIONS:     5820
 	NUMBER OF RHS:           1
 	NUMBER OF FLOPS:         5.704e+08

     CHECK POINT   START OF SOLVER    

     CHECK POINT  END OF SOLVER       

       ELAPSED USER TIME (SEC)      =  0.10000    
       ELAPSED SYSTEM TIME (SEC)    =   0.0000    
       ELAPSED TOTAL CPU TIME (SEC) =  0.10000    
       ELAPSED WALLCLOCK TIME (SEC) =          0

               CONVERGENCE CHECKS FOR EQUILIBRIUM ITERATION     1


 AVERAGE FORCE                      1.928E-04   TIME AVG. FORCE       4.436E-05
 LARGEST RESIDUAL FORCE            -8.253E-13   AT NODE        263   DOF  1
   INSTANCE: CUBE-1                                                                          
 LARGEST INCREMENT OF DISP.         5.000E-03   AT NODE          5   DOF  2
   INSTANCE: CUBE-1                                                                          
 LARGEST CORRECTION TO DISP.        9.780E-06   AT NODE        105   DOF  1
   INSTANCE: CUBE-1                                                                          
          THE FORCE     EQUILIBRIUM EQUATIONS HAVE CONVERGED

 AVERAGE PR. FLUX                   1.062E-16   TIME AVG. PR. FLUX    1.000E-02
 LARGEST RESIDUAL PR. FLUX          5.953E-15   AT NODE        670
   INSTANCE: CUBE-1                                                                          
 LARGEST INCREMENT OF VOL. LM.      5.931E-06   AT NODE        296
   INSTANCE: CUBE-1                                                                          
 LARGEST CORRECTION TO VOL. LM.    -1.100E-08   AT NODE       1201
   INSTANCE: CUBE-1                                                                          
          THERE IS ZERO PR. FLUX  EVERYWHERE
 

 ***WARNING: THERE IS ZERO PR. FLUX EVERYWHERE IN THE MODEL BASED ON THE 
             DEFAULT CRITERION. PLEASE CHECK THE VALUE OF THE AVERAGE PR. FLUX 
             DURING THE CURRENT ITERATION TO VERIFY THAT THE PR. FLUX IS SMALL 
             ENOUGH TO BE TREATED AS ZERO. IF NOT, PLEASE USE THE SOLUTION 
             CONTROLS TO RESET THE CRITERION FOR ZERO PR. FLUX.

 ITERATION SUMMARY FOR THE INCREMENT:   1 TOTAL ITERATIONS, OF WHICH
   0 ARE SEVERE DISCONTINUITY ITERATIONS AND  1 ARE EQUILIBRIUM ITERATIONS.

 TIME INCREMENT COMPLETED  1.000E-02,  FRACTION OF STEP COMPLETED  4.585E-02
 STEP TIME COMPLETED       4.585E-02,  TOTAL TIME COMPLETED        4.585E-02


  INCREMENT    16 STARTS. ATTEMPT NUMBER  1, TIME INCREMENT  1.000E-02
 
	REGULARIZED SYMMETRIC DIRECT SPARSE SOLVER RUNNING ON
 	1 HOST:        1 MPI RANK  x 1 THREAD
 	NUMBER OF EQUATIONS:     5820
 	NUMBER OF RHS:           1
 	NUMBER OF FLOPS:         5.704e+08

     CHECK POINT   START OF SOLVER    

     CHECK POINT  END OF SOLVER       

       ELAPSED USER TIME (SEC)      =  0.10000    
       ELAPSED SYSTEM TIME (SEC)    =   0.0000    
       ELAPSED TOTAL CPU TIME (SEC) =  0.10000    
       ELAPSED WALLCLOCK TIME (SEC) =          1

               CONVERGENCE CHECKS FOR EQUILIBRIUM ITERATION     1


 AVERAGE FORCE                      2.345E-04   TIME AVG. FORCE       5.625E-05
 LARGEST RESIDUAL FORCE            -8.243E-13   AT NODE        214   DOF  1
   INSTANCE: CUBE-1                                                                          
 LARGEST INCREMENT OF DISP.         5.000E-03   AT NODE          5   DOF  2
   INSTANCE: CUBE-1                                                                          
 LARGEST CORRECTION TO DISP.        9.751E-06   AT NODE        412   DOF  1
   INSTANCE: CUBE-1                                                                          
          THE FORCE     EQUILIBRIUM EQUATIONS HAVE CONVERGED

 AVERAGE PR. FLUX                   2.492E-17   TIME AVG. PR. FLUX    1.000E-02
 LARGEST RESIDUAL PR. FLUX          2.501E-15   AT NODE        653
   INSTANCE: CUBE-1                                                                          
 LARGEST INCREMENT OF VOL. LM.      5.920E-06   AT NODE        351
   INSTANCE: CUBE-1                                                                          
 LARGEST CORRECTION TO VOL. LM.    -1.092E-08   AT NODE       1094
   INSTANCE: CUBE-1                                                                          
          THERE IS ZERO PR. FLUX  EVERYWHERE
 

 ***WARNING: THERE IS ZERO PR. FLUX EVERYWHERE IN THE MODEL BASED ON THE 
             DEFAULT CRITERION. PLEASE CHECK THE VALUE OF THE AVERAGE PR. FLUX 
             DURING THE CURRENT ITERATION TO VERIFY THAT THE PR. FLUX IS SMALL 
             ENOUGH TO BE TREATED AS ZERO. IF NOT, PLEASE USE THE SOLUTION 
             CONTROLS TO RESET THE CRITERION FOR ZERO PR. FLUX.

 ITERATION SUMMARY FOR THE INCREMENT:   1 TOTAL ITERATIONS, OF WHICH
   0 ARE SEVERE DISCONTINUITY ITERATIONS AND  1 ARE EQUILIBRIUM ITERATIONS.

 TIME INCREMENT COMPLETED  1.000E-02,  FRACTION OF STEP COMPLETED  5.585E-02
 STEP TIME COMPLETED       5.585E-02,  TOTAL TIME COMPLETED        5.585E-02


  INCREMENT    17 STARTS. ATTEMPT NUMBER  1, TIME INCREMENT  1.000E-02
 
	REGULARIZED SYMMETRIC DIRECT SPARSE SOLVER RUNNING ON
 	1 HOST:        1 MPI RANK  x 1 THREAD
 	NUMBER OF EQUATIONS:     5820
 	NUMBER OF RHS:           1
 	NUMBER OF FLOPS:         5.704e+08

     CHECK POINT   START OF SOLVER    

     CHECK POINT  END OF SOLVER       

       ELAPSED USER TIME (SEC)      =   0.0000    
       ELAPSED SYSTEM TIME (SEC)    =   0.0000    
       ELAPSED TOTAL CPU TIME (SEC) =   0.0000    
       ELAPSED WALLCLOCK TIME (SEC) =          0

               CONVERGENCE CHECKS FOR EQUILIBRIUM ITERATION     1


 AVERAGE FORCE                      2.761E-04   TIME AVG. FORCE       6.918E-05
 LARGEST RESIDUAL FORCE            -8.233E-13   AT NODE        217   DOF  1
   INSTANCE: CUBE-1                                                                          
 LARGEST INCREMENT OF DISP.         5.000E-03   AT NODE          5   DOF  2
   INSTANCE: CUBE-1                                                                          
 LARGEST CORRECTION TO DISP.        9.722E-06   AT NODE         95   DOF  1
   INSTANCE: CUBE-1                                                                          
          THE FORCE     EQUILIBRIUM EQUATIONS HAVE CONVERGED

 AVERAGE PR. FLUX                   1.777E-16   TIME AVG. PR. FLUX    1.000E-02
 LARGEST RESIDUAL PR. FLUX         -8.504E-15   AT NODE        603
   INSTANCE: CUBE-1                                                                          
 LARGEST INCREMENT OF VOL. LM.      5.909E-06   AT NODE        170
   INSTANCE: CUBE-1                                                                          
 LARGEST CORRECTION TO VOL. LM.    -1.084E-08   AT NODE        351
   INSTANCE: CUBE-1                                                                          
          THERE IS ZERO PR. FLUX  EVERYWHERE
 

 ***WARNING: THERE IS ZERO PR. FLUX EVERYWHERE IN THE MODEL BASED ON THE 
             DEFAULT CRITERION. PLEASE CHECK THE VALUE OF THE AVERAGE PR. FLUX 
             DURING THE CURRENT ITERATION TO VERIFY THAT THE PR. FLUX IS SMALL 
             ENOUGH TO BE TREATED AS ZERO. IF NOT, PLEASE USE THE SOLUTION 
             CONTROLS TO RESET THE CRITERION FOR ZERO PR. FLUX.

 ITERATION SUMMARY FOR THE INCREMENT:   1 TOTAL ITERATIONS, OF WHICH
   0 ARE SEVERE DISCONTINUITY ITERATIONS AND  1 ARE EQUILIBRIUM ITERATIONS.

 TIME INCREMENT COMPLETED  1.000E-02,  FRACTION OF STEP COMPLETED  6.585E-02
 STEP TIME COMPLETED       6.585E-02,  TOTAL TIME COMPLETED        6.585E-02


  INCREMENT    18 STARTS. ATTEMPT NUMBER  1, TIME INCREMENT  1.000E-02
 
	REGULARIZED SYMMETRIC DIRECT SPARSE SOLVER RUNNING ON
 	1 HOST:        1 MPI RANK  x 1 THREAD
 	NUMBER OF EQUATIONS:     5820
 	NUMBER OF RHS:           1
 	NUMBER OF FLOPS:         5.704e+08

     CHECK POINT   START OF SOLVER    

     CHECK POINT  END OF SOLVER       

       ELAPSED USER TIME (SEC)      =  0.10000    
       ELAPSED SYSTEM TIME (SEC)    =   0.0000    
       ELAPSED TOTAL CPU TIME (SEC) =  0.10000    
       ELAPSED WALLCLOCK TIME (SEC) =          0

               CONVERGENCE CHECKS FOR EQUILIBRIUM ITERATION     1


 AVERAGE FORCE                      3.175E-04   TIME AVG. FORCE       8.297E-05
 LARGEST RESIDUAL FORCE            -8.235E-13   AT NODE        214   DOF  1
   INSTANCE: CUBE-1                                                                          
 LARGEST INCREMENT OF DISP.         5.000E-03   AT NODE          5   DOF  2
   INSTANCE: CUBE-1                                                                          
 LARGEST CORRECTION TO DISP.        9.694E-06   AT NODE         38   DOF  1
   INSTANCE: CUBE-1                                                                          
          THE FORCE     EQUILIBRIUM RESPONSE WAS LINEAR IN THIS INCREMENT

 AVERAGE PR. FLUX                   1.747E-15   TIME AVG. PR. FLUX    1.000E-02
 LARGEST RESIDUAL PR. FLUX          5.839E-15   AT NODE        637
   INSTANCE: CUBE-1                                                                          
 LARGEST INCREMENT OF VOL. LM.      5.898E-06   AT NODE       1336
   INSTANCE: CUBE-1                                                                          
 LARGEST CORRECTION TO VOL. LM.    -1.076E-08   AT NODE        541
   INSTANCE: CUBE-1                                                                          
          THERE IS ZERO PR. FLUX  EVERYWHERE
 

 ***WARNING: THERE IS ZERO PR. FLUX EVERYWHERE IN THE MODEL BASED ON THE 
             DEFAULT CRITERION. PLEASE CHECK THE VALUE OF THE AVERAGE PR. FLUX 
             DURING THE CURRENT ITERATION TO VERIFY THAT THE PR. FLUX IS SMALL 
             ENOUGH TO BE TREATED AS ZERO. IF NOT, PLEASE USE THE SOLUTION 
             CONTROLS TO RESET THE CRITERION FOR ZERO PR. FLUX.

 ITERATION SUMMARY FOR THE INCREMENT:   1 TOTAL ITERATIONS, OF WHICH
   0 ARE SEVERE DISCONTINUITY ITERATIONS AND  1 ARE EQUILIBRIUM ITERATIONS.

 TIME INCREMENT COMPLETED  1.000E-02,  FRACTION OF STEP COMPLETED  7.585E-02
 STEP TIME COMPLETED       7.585E-02,  TOTAL TIME COMPLETED        7.585E-02


  INCREMENT    19 STARTS. ATTEMPT NUMBER  1, TIME INCREMENT  1.000E-02
 
	REGULARIZED SYMMETRIC DIRECT SPARSE SOLVER RUNNING ON
 	1 HOST:        1 MPI RANK  x 1 THREAD
 	NUMBER OF EQUATIONS:     5820
 	NUMBER OF RHS:           1
 	NUMBER OF FLOPS:         5.704e+08

     CHECK POINT   START OF SOLVER    

     CHECK POINT  END OF SOLVER       

       ELAPSED USER TIME (SEC)      =  0.10000    
       ELAPSED SYSTEM TIME (SEC)    =   0.0000    
       ELAPSED TOTAL CPU TIME (SEC) =  0.10000    
       ELAPSED WALLCLOCK TIME (SEC) =          0

               CONVERGENCE CHECKS FOR EQUILIBRIUM ITERATION     1


 AVERAGE FORCE                      3.588E-04   TIME AVG. FORCE       9.749E-05
 LARGEST RESIDUAL FORCE            -8.231E-13   AT NODE        223   DOF  1
   INSTANCE: CUBE-1                                                                          
 LARGEST INCREMENT OF DISP.         5.000E-03   AT NODE          5   DOF  2
   INSTANCE: CUBE-1                                                                          
 LARGEST CORRECTION TO DISP.        9.665E-06   AT NODE         82   DOF  1
   INSTANCE: CUBE-1                                                                          
          THE FORCE     EQUILIBRIUM RESPONSE WAS LINEAR IN THIS INCREMENT

 AVERAGE PR. FLUX                   1.281E-15   TIME AVG. PR. FLUX    1.000E-02
 LARGEST RESIDUAL PR. FLUX         -3.662E-15   AT NODE        770
   INSTANCE: CUBE-1                                                                          
 LARGEST INCREMENT OF VOL. LM.      5.887E-06   AT NODE        378
   INSTANCE: CUBE-1                                                                          
 LARGEST CORRECTION TO VOL. LM.    -1.068E-08   AT NODE       1427
   INSTANCE: CUBE-1                                                                          
          THERE IS ZERO PR. FLUX  EVERYWHERE
 

 ***WARNING: THERE IS ZERO PR. FLUX EVERYWHERE IN THE MODEL BASED ON THE 
             DEFAULT CRITERION. PLEASE CHECK THE VALUE OF THE AVERAGE PR. FLUX 
             DURING THE CURRENT ITERATION TO VERIFY THAT THE PR. FLUX IS SMALL 
             ENOUGH TO BE TREATED AS ZERO. IF NOT, PLEASE USE THE SOLUTION 
             CONTROLS TO RESET THE CRITERION FOR ZERO PR. FLUX.

 ITERATION SUMMARY FOR THE INCREMENT:   1 TOTAL ITERATIONS, OF WHICH
   0 ARE SEVERE DISCONTINUITY ITERATIONS AND  1 ARE EQUILIBRIUM ITERATIONS.

 TIME INCREMENT COMPLETED  1.000E-02,  FRACTION OF STEP COMPLETED  8.585E-02
 STEP TIME COMPLETED       8.585E-02,  TOTAL TIME COMPLETED        8.585E-02


  INCREMENT    20 STARTS. ATTEMPT NUMBER  1, TIME INCREMENT  1.000E-02
 
	REGULARIZED SYMMETRIC DIRECT SPARSE SOLVER RUNNING ON
 	1 HOST:        1 MPI RANK  x 1 THREAD
 	NUMBER OF EQUATIONS:     5820
 	NUMBER OF RHS:           1
 	NUMBER OF FLOPS:         5.704e+08

     CHECK POINT   START OF SOLVER    

     CHECK POINT  END OF SOLVER       

       ELAPSED USER TIME (SEC)      =   0.0000    
       ELAPSED SYSTEM TIME (SEC)    =   0.0000    
       ELAPSED TOTAL CPU TIME (SEC) =   0.0000    
       ELAPSED WALLCLOCK TIME (SEC) =          0

               CONVERGENCE CHECKS FOR EQUILIBRIUM ITERATION     1


 AVERAGE FORCE                      4.000E-04   TIME AVG. FORCE       1.126E-04
 LARGEST RESIDUAL FORCE            -8.208E-13   AT NODE        263   DOF  1
   INSTANCE: CUBE-1                                                                          
 LARGEST INCREMENT OF DISP.         5.000E-03   AT NODE          5   DOF  2
   INSTANCE: CUBE-1                                                                          
 LARGEST CORRECTION TO DISP.        9.637E-06   AT NODE        103   DOF  1
   INSTANCE: CUBE-1                                                                          
          THE FORCE     EQUILIBRIUM RESPONSE WAS LINEAR IN THIS INCREMENT

 AVERAGE PR. FLUX                   8.542E-16   TIME AVG. PR. FLUX    1.000E-02
 LARGEST RESIDUAL PR. FLUX         -5.713E-15   AT NODE        754
   INSTANCE: CUBE-1                                                                          
 LARGEST INCREMENT OF VOL. LM.      5.877E-06   AT NODE         34
   INSTANCE: CUBE-1                                                                          
 LARGEST CORRECTION TO VOL. LM.    -1.060E-08   AT NODE        378
   INSTANCE: CUBE-1                                                                          
          THERE IS ZERO PR. FLUX  EVERYWHERE
 

 ***WARNING: THERE IS ZERO PR. FLUX EVERYWHERE IN THE MODEL BASED ON THE 
             DEFAULT CRITERION. PLEASE CHECK THE VALUE OF THE AVERAGE PR. FLUX 
             DURING THE CURRENT ITERATION TO VERIFY THAT THE PR. FLUX IS SMALL 
             ENOUGH TO BE TREATED AS ZERO. IF NOT, PLEASE USE THE SOLUTION 
             CONTROLS TO RESET THE CRITERION FOR ZERO PR. FLUX.

 ITERATION SUMMARY FOR THE INCREMENT:   1 TOTAL ITERATIONS, OF WHICH
   0 ARE SEVERE DISCONTINUITY ITERATIONS AND  1 ARE EQUILIBRIUM ITERATIONS.

 TIME INCREMENT COMPLETED  1.000E-02,  FRACTION OF STEP COMPLETED  9.585E-02
 STEP TIME COMPLETED       9.585E-02,  TOTAL TIME COMPLETED        9.585E-02


  INCREMENT    21 STARTS. ATTEMPT NUMBER  1, TIME INCREMENT  1.000E-02
 
	REGULARIZED SYMMETRIC DIRECT SPARSE SOLVER RUNNING ON
 	1 HOST:        1 MPI RANK  x 1 THREAD
 	NUMBER OF EQUATIONS:     5820
 	NUMBER OF RHS:           1
 	NUMBER OF FLOPS:         5.704e+08

     CHECK POINT   START OF SOLVER    

     CHECK POINT  END OF SOLVER       

       ELAPSED USER TIME (SEC)      =  0.10000    
       ELAPSED SYSTEM TIME (SEC)    =   0.0000    
       ELAPSED TOTAL CPU TIME (SEC) =  0.10000    
       ELAPSED WALLCLOCK TIME (SEC) =          0

               CONVERGENCE CHECKS FOR EQUILIBRIUM ITERATION     1


 AVERAGE FORCE                      4.410E-04   TIME AVG. FORCE       1.282E-04
 LARGEST RESIDUAL FORCE             8.207E-13   AT NODE        371   DOF  1
   INSTANCE: CUBE-1                                                                          
 LARGEST INCREMENT OF DISP.         5.000E-03   AT NODE          5   DOF  2
   INSTANCE: CUBE-1                                                                          
 LARGEST CORRECTION TO DISP.        9.609E-06   AT NODE          4   DOF  1
   INSTANCE: CUBE-1                                                                          
          THE FORCE     EQUILIBRIUM RESPONSE WAS LINEAR IN THIS INCREMENT

 AVERAGE PR. FLUX                   6.564E-16   TIME AVG. PR. FLUX    1.000E-02
 LARGEST RESIDUAL PR. FLUX          4.253E-15   AT NODE        808
   INSTANCE: CUBE-1                                                                          
 LARGEST INCREMENT OF VOL. LM.      5.866E-06   AT NODE       1442
   INSTANCE: CUBE-1                                                                          
 LARGEST CORRECTION TO VOL. LM.    -1.052E-08   AT NODE         34
   INSTANCE: CUBE-1                                                                          
          THERE IS ZERO PR. FLUX  EVERYWHERE
 

 ***WARNING: THERE IS ZERO PR. FLUX EVERYWHERE IN THE MODEL BASED ON THE 
             DEFAULT CRITERION. PLEASE CHECK THE VALUE OF THE AVERAGE PR. FLUX 
             DURING THE CURRENT ITERATION TO VERIFY THAT THE PR. FLUX IS SMALL 
             ENOUGH TO BE TREATED AS ZERO. IF NOT, PLEASE USE THE SOLUTION 
             CONTROLS TO RESET THE CRITERION FOR ZERO PR. FLUX.

 ITERATION SUMMARY FOR THE INCREMENT:   1 TOTAL ITERATIONS, OF WHICH
   0 ARE SEVERE DISCONTINUITY ITERATIONS AND  1 ARE EQUILIBRIUM ITERATIONS.

 TIME INCREMENT COMPLETED  1.000E-02,  FRACTION OF STEP COMPLETED  0.106    
 STEP TIME COMPLETED       0.106    ,  TOTAL TIME COMPLETED        0.106    


  INCREMENT    22 STARTS. ATTEMPT NUMBER  1, TIME INCREMENT  1.000E-02
 
	REGULARIZED SYMMETRIC DIRECT SPARSE SOLVER RUNNING ON
 	1 HOST:        1 MPI RANK  x 1 THREAD
 	NUMBER OF EQUATIONS:     5820
 	NUMBER OF RHS:           1
 	NUMBER OF FLOPS:         5.704e+08

     CHECK POINT   START OF SOLVER    

     CHECK POINT  END OF SOLVER       

       ELAPSED USER TIME (SEC)      =  0.10000    
       ELAPSED SYSTEM TIME (SEC)    =   0.0000    
       ELAPSED TOTAL CPU TIME (SEC) =  0.10000    
       ELAPSED WALLCLOCK TIME (SEC) =          0

               CONVERGENCE CHECKS FOR EQUILIBRIUM ITERATION     1


 AVERAGE FORCE                      4.819E-04   TIME AVG. FORCE       1.443E-04
 LARGEST RESIDUAL FORCE             8.204E-13   AT NODE        370   DOF  1
   INSTANCE: CUBE-1                                                                          
 LARGEST INCREMENT OF DISP.         5.000E-03   AT NODE          5   DOF  2
   INSTANCE: CUBE-1                                                                          
 LARGEST CORRECTION TO DISP.        9.581E-06   AT NODE         95   DOF  1
   INSTANCE: CUBE-1                                                                          
          THE FORCE     EQUILIBRIUM RESPONSE WAS LINEAR IN THIS INCREMENT

 AVERAGE PR. FLUX                   5.135E-16   TIME AVG. PR. FLUX    1.000E-02
 LARGEST RESIDUAL PR. FLUX          4.217E-15   AT NODE        616
   INSTANCE: CUBE-1                                                                          
 LARGEST INCREMENT OF VOL. LM.      5.856E-06   AT NODE         38
   INSTANCE: CUBE-1                                                                          
 LARGEST CORRECTION TO VOL. LM.    -1.044E-08   AT NODE          1
   INSTANCE: CUBE-1                                                                          
          THERE IS ZERO PR. FLUX  EVERYWHERE
 

 ***WARNING: THERE IS ZERO PR. FLUX EVERYWHERE IN THE MODEL BASED ON THE 
             DEFAULT CRITERION. PLEASE CHECK THE VALUE OF THE AVERAGE PR. FLUX 
             DURING THE CURRENT ITERATION TO VERIFY THAT THE PR. FLUX IS SMALL 
             ENOUGH TO BE TREATED AS ZERO. IF NOT, PLEASE USE THE SOLUTION 
             CONTROLS TO RESET THE CRITERION FOR ZERO PR. FLUX.

 ITERATION SUMMARY FOR THE INCREMENT:   1 TOTAL ITERATIONS, OF WHICH
   0 ARE SEVERE DISCONTINUITY ITERATIONS AND  1 ARE EQUILIBRIUM ITERATIONS.

 TIME INCREMENT COMPLETED  1.000E-02,  FRACTION OF STEP COMPLETED  0.116    
 STEP TIME COMPLETED       0.116    ,  TOTAL TIME COMPLETED        0.116    


  INCREMENT    23 STARTS. ATTEMPT NUMBER  1, TIME INCREMENT  1.000E-02
 
	REGULARIZED SYMMETRIC DIRECT SPARSE SOLVER RUNNING ON
 	1 HOST:        1 MPI RANK  x 1 THREAD
 	NUMBER OF EQUATIONS:     5820
 	NUMBER OF RHS:           1
 	NUMBER OF FLOPS:         5.704e+08

     CHECK POINT   START OF SOLVER    

     CHECK POINT  END OF SOLVER       

       ELAPSED USER TIME (SEC)      =  0.10000    
       ELAPSED SYSTEM TIME (SEC)    =  0.10000    
       ELAPSED TOTAL CPU TIME (SEC) =  0.20000    
       ELAPSED WALLCLOCK TIME (SEC) =          0

               CONVERGENCE CHECKS FOR EQUILIBRIUM ITERATION     1


 AVERAGE FORCE                      5.227E-04   TIME AVG. FORCE       1.608E-04
 LARGEST RESIDUAL FORCE             8.174E-13   AT NODE        410   DOF  1
   INSTANCE: CUBE-1                                                                          
 LARGEST INCREMENT OF DISP.         5.000E-03   AT NODE          5   DOF  2
   INSTANCE: CUBE-1                                                                          
 LARGEST CORRECTION TO DISP.        9.553E-06   AT NODE        361   DOF  1
   INSTANCE: CUBE-1                                                                          
          THE FORCE     EQUILIBRIUM RESPONSE WAS LINEAR IN THIS INCREMENT

 AVERAGE PR. FLUX                   3.326E-16   TIME AVG. PR. FLUX    1.000E-02
 LARGEST RESIDUAL PR. FLUX         -8.681E-15   AT NODE        616
   INSTANCE: CUBE-1                                                                          
 LARGEST INCREMENT OF VOL. LM.      5.846E-06   AT NODE        525
   INSTANCE: CUBE-1                                                                          
 LARGEST CORRECTION TO VOL. LM.    -1.036E-08   AT NODE         38
   INSTANCE: CUBE-1                                                                          
          THERE IS ZERO PR. FLUX  EVERYWHERE
 

 ***WARNING: THERE IS ZERO PR. FLUX EVERYWHERE IN THE MODEL BASED ON THE 
             DEFAULT CRITERION. PLEASE CHECK THE VALUE OF THE AVERAGE PR. FLUX 
             DURING THE CURRENT ITERATION TO VERIFY THAT THE PR. FLUX IS SMALL 
             ENOUGH TO BE TREATED AS ZERO. IF NOT, PLEASE USE THE SOLUTION 
             CONTROLS TO RESET THE CRITERION FOR ZERO PR. FLUX.

 ITERATION SUMMARY FOR THE INCREMENT:   1 TOTAL ITERATIONS, OF WHICH
   0 ARE SEVERE DISCONTINUITY ITERATIONS AND  1 ARE EQUILIBRIUM ITERATIONS.

 TIME INCREMENT COMPLETED  1.000E-02,  FRACTION OF STEP COMPLETED  0.126    
 STEP TIME COMPLETED       0.126    ,  TOTAL TIME COMPLETED        0.126    


  INCREMENT    24 STARTS. ATTEMPT NUMBER  1, TIME INCREMENT  1.000E-02
 
	REGULARIZED SYMMETRIC DIRECT SPARSE SOLVER RUNNING ON
 	1 HOST:        1 MPI RANK  x 1 THREAD
 	NUMBER OF EQUATIONS:     5820
 	NUMBER OF RHS:           1
 	NUMBER OF FLOPS:         5.704e+08

     CHECK POINT   START OF SOLVER    

     CHECK POINT  END OF SOLVER       

       ELAPSED USER TIME (SEC)      =  0.10000    
       ELAPSED SYSTEM TIME (SEC)    =   0.0000    
       ELAPSED TOTAL CPU TIME (SEC) =  0.10000    
       ELAPSED WALLCLOCK TIME (SEC) =          1

               CONVERGENCE CHECKS FOR EQUILIBRIUM ITERATION     1


 AVERAGE FORCE                      5.633E-04   TIME AVG. FORCE       1.775E-04
 LARGEST RESIDUAL FORCE            -8.167E-13   AT NODE        220   DOF  1
   INSTANCE: CUBE-1                                                                          
 LARGEST INCREMENT OF DISP.         5.000E-03   AT NODE          5   DOF  2
   INSTANCE: CUBE-1                                                                          
 LARGEST CORRECTION TO DISP.        9.525E-06   AT NODE        427   DOF  1
   INSTANCE: CUBE-1                                                                          
          THE FORCE     EQUILIBRIUM RESPONSE WAS LINEAR IN THIS INCREMENT

 AVERAGE PR. FLUX                   2.399E-16   TIME AVG. PR. FLUX    1.000E-02
 LARGEST RESIDUAL PR. FLUX          8.161E-15   AT NODE        637
   INSTANCE: CUBE-1                                                                          
 LARGEST INCREMENT OF VOL. LM.      5.835E-06   AT NODE       1104
   INSTANCE: CUBE-1                                                                          
 LARGEST CORRECTION TO VOL. LM.    -1.029E-08   AT NODE        351
   INSTANCE: CUBE-1                                                                          
          THERE IS ZERO PR. FLUX  EVERYWHERE
 

 ***WARNING: THERE IS ZERO PR. FLUX EVERYWHERE IN THE MODEL BASED ON THE 
             DEFAULT CRITERION. PLEASE CHECK THE VALUE OF THE AVERAGE PR. FLUX 
             DURING THE CURRENT ITERATION TO VERIFY THAT THE PR. FLUX IS SMALL 
             ENOUGH TO BE TREATED AS ZERO. IF NOT, PLEASE USE THE SOLUTION 
             CONTROLS TO RESET THE CRITERION FOR ZERO PR. FLUX.

 ITERATION SUMMARY FOR THE INCREMENT:   1 TOTAL ITERATIONS, OF WHICH
   0 ARE SEVERE DISCONTINUITY ITERATIONS AND  1 ARE EQUILIBRIUM ITERATIONS.

 TIME INCREMENT COMPLETED  1.000E-02,  FRACTION OF STEP COMPLETED  0.136    
 STEP TIME COMPLETED       0.136    ,  TOTAL TIME COMPLETED        0.136    


  INCREMENT    25 STARTS. ATTEMPT NUMBER  1, TIME INCREMENT  1.000E-02
 
	REGULARIZED SYMMETRIC DIRECT SPARSE SOLVER RUNNING ON
 	1 HOST:        1 MPI RANK  x 1 THREAD
 	NUMBER OF EQUATIONS:     5820
 	NUMBER OF RHS:           1
 	NUMBER OF FLOPS:         5.704e+08

     CHECK POINT   START OF SOLVER    

     CHECK POINT  END OF SOLVER       

       ELAPSED USER TIME (SEC)      =  0.10000    
       ELAPSED SYSTEM TIME (SEC)    =   0.0000    
       ELAPSED TOTAL CPU TIME (SEC) =  0.10000    
       ELAPSED WALLCLOCK TIME (SEC) =          0

               CONVERGENCE CHECKS FOR EQUILIBRIUM ITERATION     1


 AVERAGE FORCE                      6.039E-04   TIME AVG. FORCE       1.946E-04
 LARGEST RESIDUAL FORCE            -8.161E-13   AT NODE        259   DOF  1
   INSTANCE: CUBE-1                                                                          
 LARGEST INCREMENT OF DISP.         5.000E-03   AT NODE          5   DOF  2
   INSTANCE: CUBE-1                                                                          
 LARGEST CORRECTION TO DISP.        9.497E-06   AT NODE         92   DOF  1
   INSTANCE: CUBE-1                                                                          
          THE FORCE     EQUILIBRIUM RESPONSE WAS LINEAR IN THIS INCREMENT

 AVERAGE PR. FLUX                   2.787E-16   TIME AVG. PR. FLUX    1.000E-02
 LARGEST RESIDUAL PR. FLUX         -6.207E-15   AT NODE        616
   INSTANCE: CUBE-1                                                                          
 LARGEST INCREMENT OF VOL. LM.      5.825E-06   AT NODE          6
   INSTANCE: CUBE-1                                                                          
 LARGEST CORRECTION TO VOL. LM.    -1.021E-08   AT NODE        122
   INSTANCE: CUBE-1                                                                          
          THERE IS ZERO PR. FLUX  EVERYWHERE
 

 ***WARNING: THERE IS ZERO PR. FLUX EVERYWHERE IN THE MODEL BASED ON THE 
             DEFAULT CRITERION. PLEASE CHECK THE VALUE OF THE AVERAGE PR. FLUX 
             DURING THE CURRENT ITERATION TO VERIFY THAT THE PR. FLUX IS SMALL 
             ENOUGH TO BE TREATED AS ZERO. IF NOT, PLEASE USE THE SOLUTION 
             CONTROLS TO RESET THE CRITERION FOR ZERO PR. FLUX.

 ITERATION SUMMARY FOR THE INCREMENT:   1 TOTAL ITERATIONS, OF WHICH
   0 ARE SEVERE DISCONTINUITY ITERATIONS AND  1 ARE EQUILIBRIUM ITERATIONS.

 TIME INCREMENT COMPLETED  1.000E-02,  FRACTION OF STEP COMPLETED  0.146    
 STEP TIME COMPLETED       0.146    ,  TOTAL TIME COMPLETED        0.146    


  INCREMENT    26 STARTS. ATTEMPT NUMBER  1, TIME INCREMENT  1.000E-02
 
	REGULARIZED SYMMETRIC DIRECT SPARSE SOLVER RUNNING ON
 	1 HOST:        1 MPI RANK  x 1 THREAD
 	NUMBER OF EQUATIONS:     5820
 	NUMBER OF RHS:           1
 	NUMBER OF FLOPS:         5.704e+08

     CHECK POINT   START OF SOLVER    

     CHECK POINT  END OF SOLVER       

       ELAPSED USER TIME (SEC)      =  0.10000    
       ELAPSED SYSTEM TIME (SEC)    =   0.0000    
       ELAPSED TOTAL CPU TIME (SEC) =  0.10000    
       ELAPSED WALLCLOCK TIME (SEC) =          0

               CONVERGENCE CHECKS FOR EQUILIBRIUM ITERATION     1


 AVERAGE FORCE                      6.443E-04   TIME AVG. FORCE       2.119E-04
 LARGEST RESIDUAL FORCE             8.147E-13   AT NODE        373   DOF  1
   INSTANCE: CUBE-1                                                                          
 LARGEST INCREMENT OF DISP.         5.000E-03   AT NODE          5   DOF  2
   INSTANCE: CUBE-1                                                                          
 LARGEST CORRECTION TO DISP.        9.469E-06   AT NODE         90   DOF  1
   INSTANCE: CUBE-1                                                                          
          THE FORCE     EQUILIBRIUM RESPONSE WAS LINEAR IN THIS INCREMENT

 AVERAGE PR. FLUX                   2.251E-16   TIME AVG. PR. FLUX    1.000E-02
 LARGEST RESIDUAL PR. FLUX          4.935E-15   AT NODE        834
   INSTANCE: CUBE-1                                                                          
 LARGEST INCREMENT OF VOL. LM.      5.815E-06   AT NODE         53
   INSTANCE: CUBE-1                                                                          
 LARGEST CORRECTION TO VOL. LM.    -1.013E-08   AT NODE          6
   INSTANCE: CUBE-1                                                                          
          THERE IS ZERO PR. FLUX  EVERYWHERE
 

 ***WARNING: THERE IS ZERO PR. FLUX EVERYWHERE IN THE MODEL BASED ON THE 
             DEFAULT CRITERION. PLEASE CHECK THE VALUE OF THE AVERAGE PR. FLUX 
             DURING THE CURRENT ITERATION TO VERIFY THAT THE PR. FLUX IS SMALL 
             ENOUGH TO BE TREATED AS ZERO. IF NOT, PLEASE USE THE SOLUTION 
             CONTROLS TO RESET THE CRITERION FOR ZERO PR. FLUX.

 ITERATION SUMMARY FOR THE INCREMENT:   1 TOTAL ITERATIONS, OF WHICH
   0 ARE SEVERE DISCONTINUITY ITERATIONS AND  1 ARE EQUILIBRIUM ITERATIONS.

 TIME INCREMENT COMPLETED  1.000E-02,  FRACTION OF STEP COMPLETED  0.156    
 STEP TIME COMPLETED       0.156    ,  TOTAL TIME COMPLETED        0.156    


  INCREMENT    27 STARTS. ATTEMPT NUMBER  1, TIME INCREMENT  1.000E-02
 
	REGULARIZED SYMMETRIC DIRECT SPARSE SOLVER RUNNING ON
 	1 HOST:        1 MPI RANK  x 1 THREAD
 	NUMBER OF EQUATIONS:     5820
 	NUMBER OF RHS:           1
 	NUMBER OF FLOPS:         5.704e+08

     CHECK POINT   START OF SOLVER    

     CHECK POINT  END OF SOLVER       

       ELAPSED USER TIME (SEC)      =  0.10000    
       ELAPSED SYSTEM TIME (SEC)    =   0.0000    
       ELAPSED TOTAL CPU TIME (SEC) =  0.10000    
       ELAPSED WALLCLOCK TIME (SEC) =          0

               CONVERGENCE CHECKS FOR EQUILIBRIUM ITERATION     1


 AVERAGE FORCE                      6.845E-04   TIME AVG. FORCE       2.294E-04
 LARGEST RESIDUAL FORCE             8.135E-13   AT NODE        410   DOF  1
   INSTANCE: CUBE-1                                                                          
 LARGEST INCREMENT OF DISP.         5.000E-03   AT NODE          5   DOF  2
   INSTANCE: CUBE-1                                                                          
 LARGEST CORRECTION TO DISP.        9.442E-06   AT NODE        380   DOF  1
   INSTANCE: CUBE-1                                                                          
          THE FORCE     EQUILIBRIUM RESPONSE WAS LINEAR IN THIS INCREMENT

 AVERAGE PR. FLUX                   1.929E-16   TIME AVG. PR. FLUX    1.000E-02
 LARGEST RESIDUAL PR. FLUX          8.616E-15   AT NODE        748
   INSTANCE: CUBE-1                                                                          
 LARGEST INCREMENT OF VOL. LM.      5.805E-06   AT NODE        352
   INSTANCE: CUBE-1                                                                          
 LARGEST CORRECTION TO VOL. LM.    -1.006E-08   AT NODE         53
   INSTANCE: CUBE-1                                                                          
          THERE IS ZERO PR. FLUX  EVERYWHERE
 

 ***WARNING: THERE IS ZERO PR. FLUX EVERYWHERE IN THE MODEL BASED ON THE 
             DEFAULT CRITERION. PLEASE CHECK THE VALUE OF THE AVERAGE PR. FLUX 
             DURING THE CURRENT ITERATION TO VERIFY THAT THE PR. FLUX IS SMALL 
             ENOUGH TO BE TREATED AS ZERO. IF NOT, PLEASE USE THE SOLUTION 
             CONTROLS TO RESET THE CRITERION FOR ZERO PR. FLUX.

 ITERATION SUMMARY FOR THE INCREMENT:   1 TOTAL ITERATIONS, OF WHICH
   0 ARE SEVERE DISCONTINUITY ITERATIONS AND  1 ARE EQUILIBRIUM ITERATIONS.

 TIME INCREMENT COMPLETED  1.000E-02,  FRACTION OF STEP COMPLETED  0.166    
 STEP TIME COMPLETED       0.166    ,  TOTAL TIME COMPLETED        0.166    


  INCREMENT    28 STARTS. ATTEMPT NUMBER  1, TIME INCREMENT  1.000E-02
 
	REGULARIZED SYMMETRIC DIRECT SPARSE SOLVER RUNNING ON
 	1 HOST:        1 MPI RANK  x 1 THREAD
 	NUMBER OF EQUATIONS:     5820
 	NUMBER OF RHS:           1
 	NUMBER OF FLOPS:         5.704e+08

     CHECK POINT   START OF SOLVER    

     CHECK POINT  END OF SOLVER       

       ELAPSED USER TIME (SEC)      =  0.10000    
       ELAPSED SYSTEM TIME (SEC)    =   0.0000    
       ELAPSED TOTAL CPU TIME (SEC) =  0.10000    
       ELAPSED WALLCLOCK TIME (SEC) =          0

               CONVERGENCE CHECKS FOR EQUILIBRIUM ITERATION     1


 AVERAGE FORCE                      7.247E-04   TIME AVG. FORCE       2.471E-04
 LARGEST RESIDUAL FORCE             8.132E-13   AT NODE        390   DOF  1
   INSTANCE: CUBE-1                                                                          
 LARGEST INCREMENT OF DISP.         5.000E-03   AT NODE          5   DOF  2
   INSTANCE: CUBE-1                                                                          
 LARGEST CORRECTION TO DISP.        9.414E-06   AT NODE        369   DOF  1
   INSTANCE: CUBE-1                                                                          
          THE FORCE     EQUILIBRIUM RESPONSE WAS LINEAR IN THIS INCREMENT

 AVERAGE PR. FLUX                   1.367E-16   TIME AVG. PR. FLUX    1.000E-02
 LARGEST RESIDUAL PR. FLUX          6.076E-15   AT NODE        658
   INSTANCE: CUBE-1                                                                          
 LARGEST INCREMENT OF VOL. LM.      5.795E-06   AT NODE        533
[...]
          THERE IS ZERO PR. FLUX  EVERYWHERE
 

 ***WARNING: THERE IS ZERO PR. FLUX EVERYWHERE IN THE MODEL BASED ON THE 
             DEFAULT CRITERION. PLEASE CHECK THE VALUE OF THE AVERAGE PR. FLUX 
             DURING THE CURRENT ITERATION TO VERIFY THAT THE PR. FLUX IS SMALL 
             ENOUGH TO BE TREATED AS ZERO. IF NOT, PLEASE USE THE SOLUTION 
             CONTROLS TO RESET THE CRITERION FOR ZERO PR. FLUX.

 ITERATION SUMMARY FOR THE INCREMENT:   1 TOTAL ITERATIONS, OF WHICH
   0 ARE SEVERE DISCONTINUITY ITERATIONS AND  1 ARE EQUILIBRIUM ITERATIONS.

 TIME INCREMENT COMPLETED  1.000E-02,  FRACTION OF STEP COMPLETED  0.936    
 STEP TIME COMPLETED       0.936    ,  TOTAL TIME COMPLETED        0.936    


  INCREMENT   105 STARTS. ATTEMPT NUMBER  1, TIME INCREMENT  1.000E-02
 
	REGULARIZED SYMMETRIC DIRECT SPARSE SOLVER RUNNING ON
 	1 HOST:        1 MPI RANK  x 1 THREAD
 	NUMBER OF EQUATIONS:     5820
 	NUMBER OF RHS:           1
 	NUMBER OF FLOPS:         5.704e+08

     CHECK POINT   START OF SOLVER    

     CHECK POINT  END OF SOLVER       

       ELAPSED USER TIME (SEC)      =  0.10000    
       ELAPSED SYSTEM TIME (SEC)    =   0.0000    
       ELAPSED TOTAL CPU TIME (SEC) =  0.10000    
       ELAPSED WALLCLOCK TIME (SEC) =          0

               CONVERGENCE CHECKS FOR EQUILIBRIUM ITERATION     1


 AVERAGE FORCE                      3.500E-03   TIME AVG. FORCE       1.663E-03
 LARGEST RESIDUAL FORCE             7.431E-13   AT NODE        434   DOF  1
   INSTANCE: CUBE-1                                                                          
 LARGEST INCREMENT OF DISP.         5.000E-03   AT NODE          5   DOF  2
   INSTANCE: CUBE-1                                                                          
 LARGEST CORRECTION TO DISP.        7.582E-06   AT NODE        380   DOF  1
   INSTANCE: CUBE-1                                                                          
          THE FORCE     EQUILIBRIUM RESPONSE WAS LINEAR IN THIS INCREMENT

 AVERAGE PR. FLUX                   8.212E-17   TIME AVG. PR. FLUX    1.000E-02
 LARGEST RESIDUAL PR. FLUX         -4.062E-15   AT NODE        801
   INSTANCE: CUBE-1                                                                          
 LARGEST INCREMENT OF VOL. LM.      5.223E-06   AT NODE         80
   INSTANCE: CUBE-1                                                                          
 LARGEST CORRECTION TO VOL. LM.    -5.239E-09   AT NODE        602
   INSTANCE: CUBE-1                                                                          
          THERE IS ZERO PR. FLUX  EVERYWHERE
 

 ***WARNING: THERE IS ZERO PR. FLUX EVERYWHERE IN THE MODEL BASED ON THE 
             DEFAULT CRITERION. PLEASE CHECK THE VALUE OF THE AVERAGE PR. FLUX 
             DURING THE CURRENT ITERATION TO VERIFY THAT THE PR. FLUX IS SMALL 
             ENOUGH TO BE TREATED AS ZERO. IF NOT, PLEASE USE THE SOLUTION 
             CONTROLS TO RESET THE CRITERION FOR ZERO PR. FLUX.

 ITERATION SUMMARY FOR THE INCREMENT:   1 TOTAL ITERATIONS, OF WHICH
   0 ARE SEVERE DISCONTINUITY ITERATIONS AND  1 ARE EQUILIBRIUM ITERATIONS.

 TIME INCREMENT COMPLETED  1.000E-02,  FRACTION OF STEP COMPLETED  0.946    
 STEP TIME COMPLETED       0.946    ,  TOTAL TIME COMPLETED        0.946    


  INCREMENT   106 STARTS. ATTEMPT NUMBER  1, TIME INCREMENT  1.000E-02
 
	REGULARIZED SYMMETRIC DIRECT SPARSE SOLVER RUNNING ON
 	1 HOST:        1 MPI RANK  x 1 THREAD
 	NUMBER OF EQUATIONS:     5820
 	NUMBER OF RHS:           1
 	NUMBER OF FLOPS:         5.704e+08

     CHECK POINT   START OF SOLVER    

     CHECK POINT  END OF SOLVER       

       ELAPSED USER TIME (SEC)      =   0.0000    
       ELAPSED SYSTEM TIME (SEC)    =   0.0000    
       ELAPSED TOTAL CPU TIME (SEC) =   0.0000    
       ELAPSED WALLCLOCK TIME (SEC) =          0

               CONVERGENCE CHECKS FOR EQUILIBRIUM ITERATION     1


 AVERAGE FORCE                      3.533E-03   TIME AVG. FORCE       1.681E-03
 LARGEST RESIDUAL FORCE             7.423E-13   AT NODE        403   DOF  1
   INSTANCE: CUBE-1                                                                          
 LARGEST INCREMENT OF DISP.         5.000E-03   AT NODE          5   DOF  2
   INSTANCE: CUBE-1                                                                          
 LARGEST CORRECTION TO DISP.        7.562E-06   AT NODE         99   DOF  1
   INSTANCE: CUBE-1                                                                          
          THE FORCE     EQUILIBRIUM RESPONSE WAS LINEAR IN THIS INCREMENT

 AVERAGE PR. FLUX                   1.982E-16   TIME AVG. PR. FLUX    1.000E-02
 LARGEST RESIDUAL PR. FLUX         -1.059E-14   AT NODE        621
   INSTANCE: CUBE-1                                                                          
 LARGEST INCREMENT OF VOL. LM.      5.218E-06   AT NODE        517
   INSTANCE: CUBE-1                                                                          
 LARGEST CORRECTION TO VOL. LM.    -5.188E-09   AT NODE         80
   INSTANCE: CUBE-1                                                                          
          THERE IS ZERO PR. FLUX  EVERYWHERE
 

 ***WARNING: THERE IS ZERO PR. FLUX EVERYWHERE IN THE MODEL BASED ON THE 
             DEFAULT CRITERION. PLEASE CHECK THE VALUE OF THE AVERAGE PR. FLUX 
             DURING THE CURRENT ITERATION TO VERIFY THAT THE PR. FLUX IS SMALL 
             ENOUGH TO BE TREATED AS ZERO. IF NOT, PLEASE USE THE SOLUTION 
             CONTROLS TO RESET THE CRITERION FOR ZERO PR. FLUX.

 ITERATION SUMMARY FOR THE INCREMENT:   1 TOTAL ITERATIONS, OF WHICH
   0 ARE SEVERE DISCONTINUITY ITERATIONS AND  1 ARE EQUILIBRIUM ITERATIONS.

 TIME INCREMENT COMPLETED  1.000E-02,  FRACTION OF STEP COMPLETED  0.956    
 STEP TIME COMPLETED       0.956    ,  TOTAL TIME COMPLETED        0.956    


  INCREMENT   107 STARTS. ATTEMPT NUMBER  1, TIME INCREMENT  1.000E-02
 
	REGULARIZED SYMMETRIC DIRECT SPARSE SOLVER RUNNING ON
 	1 HOST:        1 MPI RANK  x 1 THREAD
 	NUMBER OF EQUATIONS:     5820
 	NUMBER OF RHS:           1
 	NUMBER OF FLOPS:         5.704e+08

     CHECK POINT   START OF SOLVER    

     CHECK POINT  END OF SOLVER       

       ELAPSED USER TIME (SEC)      =  0.10000    
       ELAPSED SYSTEM TIME (SEC)    =  0.10000    
       ELAPSED TOTAL CPU TIME (SEC) =  0.20000    
       ELAPSED WALLCLOCK TIME (SEC) =          0

               CONVERGENCE CHECKS FOR EQUILIBRIUM ITERATION     1


 AVERAGE FORCE                      3.565E-03   TIME AVG. FORCE       1.699E-03
 LARGEST RESIDUAL FORCE            -7.416E-13   AT NODE        239   DOF  1
   INSTANCE: CUBE-1                                                                          
 LARGEST INCREMENT OF DISP.         5.000E-03   AT NODE          5   DOF  2
   INSTANCE: CUBE-1                                                                          
 LARGEST CORRECTION TO DISP.        7.541E-06   AT NODE          4   DOF  1
   INSTANCE: CUBE-1                                                                          
          THE FORCE     EQUILIBRIUM RESPONSE WAS LINEAR IN THIS INCREMENT

 AVERAGE PR. FLUX                   1.137E-16   TIME AVG. PR. FLUX    1.000E-02
 LARGEST RESIDUAL PR. FLUX         -6.627E-15   AT NODE        638
   INSTANCE: CUBE-1                                                                          
 LARGEST INCREMENT OF VOL. LM.      5.213E-06   AT NODE       1316
   INSTANCE: CUBE-1                                                                          
 LARGEST CORRECTION TO VOL. LM.    -5.138E-09   AT NODE        531
   INSTANCE: CUBE-1                                                                          
          THERE IS ZERO PR. FLUX  EVERYWHERE
 

 ***WARNING: THERE IS ZERO PR. FLUX EVERYWHERE IN THE MODEL BASED ON THE 
             DEFAULT CRITERION. PLEASE CHECK THE VALUE OF THE AVERAGE PR. FLUX 
             DURING THE CURRENT ITERATION TO VERIFY THAT THE PR. FLUX IS SMALL 
             ENOUGH TO BE TREATED AS ZERO. IF NOT, PLEASE USE THE SOLUTION 
             CONTROLS TO RESET THE CRITERION FOR ZERO PR. FLUX.

 ITERATION SUMMARY FOR THE INCREMENT:   1 TOTAL ITERATIONS, OF WHICH
   0 ARE SEVERE DISCONTINUITY ITERATIONS AND  1 ARE EQUILIBRIUM ITERATIONS.

 TIME INCREMENT COMPLETED  1.000E-02,  FRACTION OF STEP COMPLETED  0.966    
 STEP TIME COMPLETED       0.966    ,  TOTAL TIME COMPLETED        0.966    


  INCREMENT   108 STARTS. ATTEMPT NUMBER  1, TIME INCREMENT  1.000E-02
 
	REGULARIZED SYMMETRIC DIRECT SPARSE SOLVER RUNNING ON
 	1 HOST:        1 MPI RANK  x 1 THREAD
 	NUMBER OF EQUATIONS:     5820
 	NUMBER OF RHS:           1
 	NUMBER OF FLOPS:         5.704e+08

     CHECK POINT   START OF SOLVER    

     CHECK POINT  END OF SOLVER       

       ELAPSED USER TIME (SEC)      =  0.10000    
       ELAPSED SYSTEM TIME (SEC)    =   0.0000    
       ELAPSED TOTAL CPU TIME (SEC) =  0.10000    
       ELAPSED WALLCLOCK TIME (SEC) =          0

               CONVERGENCE CHECKS FOR EQUILIBRIUM ITERATION     1


 AVERAGE FORCE                      3.597E-03   TIME AVG. FORCE       1.716E-03
 LARGEST RESIDUAL FORCE             7.409E-13   AT NODE        370   DOF  1
   INSTANCE: CUBE-1                                                                          
 LARGEST INCREMENT OF DISP.         5.000E-03   AT NODE          5   DOF  2
   INSTANCE: CUBE-1                                                                          
 LARGEST CORRECTION TO DISP.        7.521E-06   AT NODE        419   DOF  1
   INSTANCE: CUBE-1                                                                          
          THE FORCE     EQUILIBRIUM RESPONSE WAS LINEAR IN THIS INCREMENT

 AVERAGE PR. FLUX                   6.588E-17   TIME AVG. PR. FLUX    1.000E-02
 LARGEST RESIDUAL PR. FLUX          4.792E-15   AT NODE        713
   INSTANCE: CUBE-1                                                                          
 LARGEST INCREMENT OF VOL. LM.      5.208E-06   AT NODE         72
   INSTANCE: CUBE-1                                                                          
 LARGEST CORRECTION TO VOL. LM.    -5.088E-09   AT NODE         41
   INSTANCE: CUBE-1                                                                          
          THERE IS ZERO PR. FLUX  EVERYWHERE
 

 ***WARNING: THERE IS ZERO PR. FLUX EVERYWHERE IN THE MODEL BASED ON THE 
             DEFAULT CRITERION. PLEASE CHECK THE VALUE OF THE AVERAGE PR. FLUX 
             DURING THE CURRENT ITERATION TO VERIFY THAT THE PR. FLUX IS SMALL 
             ENOUGH TO BE TREATED AS ZERO. IF NOT, PLEASE USE THE SOLUTION 
             CONTROLS TO RESET THE CRITERION FOR ZERO PR. FLUX.

 ITERATION SUMMARY FOR THE INCREMENT:   1 TOTAL ITERATIONS, OF WHICH
   0 ARE SEVERE DISCONTINUITY ITERATIONS AND  1 ARE EQUILIBRIUM ITERATIONS.

 TIME INCREMENT COMPLETED  1.000E-02,  FRACTION OF STEP COMPLETED  0.976    
 STEP TIME COMPLETED       0.976    ,  TOTAL TIME COMPLETED        0.976    


  INCREMENT   109 STARTS. ATTEMPT NUMBER  1, TIME INCREMENT  1.000E-02
 
	REGULARIZED SYMMETRIC DIRECT SPARSE SOLVER RUNNING ON
 	1 HOST:        1 MPI RANK  x 1 THREAD
 	NUMBER OF EQUATIONS:     5820
 	NUMBER OF RHS:           1
 	NUMBER OF FLOPS:         5.704e+08

     CHECK POINT   START OF SOLVER    

     CHECK POINT  END OF SOLVER       

       ELAPSED USER TIME (SEC)      =  0.10000    
       ELAPSED SYSTEM TIME (SEC)    =   0.0000    
       ELAPSED TOTAL CPU TIME (SEC) =  0.10000    
       ELAPSED WALLCLOCK TIME (SEC) =          0

               CONVERGENCE CHECKS FOR EQUILIBRIUM ITERATION     1


 AVERAGE FORCE                      3.630E-03   TIME AVG. FORCE       1.734E-03
 LARGEST RESIDUAL FORCE             7.400E-13   AT NODE        369   DOF  1
   INSTANCE: CUBE-1                                                                          
 LARGEST INCREMENT OF DISP.         5.000E-03   AT NODE          5   DOF  2
   INSTANCE: CUBE-1                                                                          
 LARGEST CORRECTION TO DISP.        7.501E-06   AT NODE        433   DOF  1
   INSTANCE: CUBE-1                                                                          
          THE FORCE     EQUILIBRIUM RESPONSE WAS LINEAR IN THIS INCREMENT

 AVERAGE PR. FLUX                   9.734E-17   TIME AVG. PR. FLUX    1.000E-02
 LARGEST RESIDUAL PR. FLUX          5.037E-15   AT NODE        669
   INSTANCE: CUBE-1                                                                          
 LARGEST INCREMENT OF VOL. LM.      5.203E-06   AT NODE        517
   INSTANCE: CUBE-1                                                                          
 LARGEST CORRECTION TO VOL. LM.    -5.038E-09   AT NODE         72
   INSTANCE: CUBE-1                                                                          
          THERE IS ZERO PR. FLUX  EVERYWHERE
 

 ***WARNING: THERE IS ZERO PR. FLUX EVERYWHERE IN THE MODEL BASED ON THE 
             DEFAULT CRITERION. PLEASE CHECK THE VALUE OF THE AVERAGE PR. FLUX 
             DURING THE CURRENT ITERATION TO VERIFY THAT THE PR. FLUX IS SMALL 
             ENOUGH TO BE TREATED AS ZERO. IF NOT, PLEASE USE THE SOLUTION 
             CONTROLS TO RESET THE CRITERION FOR ZERO PR. FLUX.

 ITERATION SUMMARY FOR THE INCREMENT:   1 TOTAL ITERATIONS, OF WHICH
   0 ARE SEVERE DISCONTINUITY ITERATIONS AND  1 ARE EQUILIBRIUM ITERATIONS.

 TIME INCREMENT COMPLETED  1.000E-02,  FRACTION OF STEP COMPLETED  0.986    
 STEP TIME COMPLETED       0.986    ,  TOTAL TIME COMPLETED        0.986    


  INCREMENT   110 STARTS. ATTEMPT NUMBER  1, TIME INCREMENT  1.000E-02
 
	REGULARIZED SYMMETRIC DIRECT SPARSE SOLVER RUNNING ON
 	1 HOST:        1 MPI RANK  x 1 THREAD
 	NUMBER OF EQUATIONS:     5820
 	NUMBER OF RHS:           1
 	NUMBER OF FLOPS:         5.704e+08

     CHECK POINT   START OF SOLVER    

     CHECK POINT  END OF SOLVER       

       ELAPSED USER TIME (SEC)      =   0.0000    
       ELAPSED SYSTEM TIME (SEC)    =   0.0000    
       ELAPSED TOTAL CPU TIME (SEC) =   0.0000    
       ELAPSED WALLCLOCK TIME (SEC) =          0

               CONVERGENCE CHECKS FOR EQUILIBRIUM ITERATION     1


 AVERAGE FORCE                      3.662E-03   TIME AVG. FORCE       1.751E-03
 LARGEST RESIDUAL FORCE            -7.391E-13   AT NODE        259   DOF  1
   INSTANCE: CUBE-1                                                                          
 LARGEST INCREMENT OF DISP.         5.000E-03   AT NODE          5   DOF  2
   INSTANCE: CUBE-1                                                                          
 LARGEST CORRECTION TO DISP.        7.481E-06   AT NODE        404   DOF  1
   INSTANCE: CUBE-1                                                                          
          THE FORCE     EQUILIBRIUM RESPONSE WAS LINEAR IN THIS INCREMENT

 AVERAGE PR. FLUX                   1.143E-16   TIME AVG. PR. FLUX    1.000E-02
 LARGEST RESIDUAL PR. FLUX         -7.521E-15   AT NODE        705
   INSTANCE: CUBE-1                                                                          
 LARGEST INCREMENT OF VOL. LM.      5.198E-06   AT NODE        112
   INSTANCE: CUBE-1                                                                          
 LARGEST CORRECTION TO VOL. LM.    -4.989E-09   AT NODE        455
   INSTANCE: CUBE-1                                                                          
          THERE IS ZERO PR. FLUX  EVERYWHERE
 

 ***WARNING: THERE IS ZERO PR. FLUX EVERYWHERE IN THE MODEL BASED ON THE 
             DEFAULT CRITERION. PLEASE CHECK THE VALUE OF THE AVERAGE PR. FLUX 
             DURING THE CURRENT ITERATION TO VERIFY THAT THE PR. FLUX IS SMALL 
             ENOUGH TO BE TREATED AS ZERO. IF NOT, PLEASE USE THE SOLUTION 
             CONTROLS TO RESET THE CRITERION FOR ZERO PR. FLUX.

 ITERATION SUMMARY FOR THE INCREMENT:   1 TOTAL ITERATIONS, OF WHICH
   0 ARE SEVERE DISCONTINUITY ITERATIONS AND  1 ARE EQUILIBRIUM ITERATIONS.

 TIME INCREMENT COMPLETED  1.000E-02,  FRACTION OF STEP COMPLETED  0.996    
 STEP TIME COMPLETED       0.996    ,  TOTAL TIME COMPLETED        0.996    


  INCREMENT   111 STARTS. ATTEMPT NUMBER  1, TIME INCREMENT  4.151E-03
 
	REGULARIZED SYMMETRIC DIRECT SPARSE SOLVER RUNNING ON
 	1 HOST:        1 MPI RANK  x 1 THREAD
 	NUMBER OF EQUATIONS:     5820
 	NUMBER OF RHS:           1
 	NUMBER OF FLOPS:         5.704e+08

     CHECK POINT   START OF SOLVER    

     CHECK POINT  END OF SOLVER       

       ELAPSED USER TIME (SEC)      =  0.10000    
       ELAPSED SYSTEM TIME (SEC)    =   0.0000    
       ELAPSED TOTAL CPU TIME (SEC) =  0.10000    
       ELAPSED WALLCLOCK TIME (SEC) =          0

               CONVERGENCE CHECKS FOR EQUILIBRIUM ITERATION     1


 AVERAGE FORCE                      3.675E-03   TIME AVG. FORCE       1.769E-03
 LARGEST RESIDUAL FORCE             6.371E-14   AT NODE        369   DOF  1
   INSTANCE: CUBE-1                                                                          
 LARGEST INCREMENT OF DISP.         2.075E-03   AT NODE          5   DOF  2
   INSTANCE: CUBE-1                                                                          
 LARGEST CORRECTION TO DISP.        2.192E-06   AT NODE          7   DOF  1
   INSTANCE: CUBE-1                                                                          
          THE FORCE     EQUILIBRIUM RESPONSE WAS LINEAR IN THIS INCREMENT

 AVERAGE PR. FLUX                   1.926E-16   TIME AVG. PR. FLUX    1.000E-02
 LARGEST RESIDUAL PR. FLUX         -8.106E-15   AT NODE        621
   INSTANCE: CUBE-1                                                                          
 LARGEST INCREMENT OF VOL. LM.      2.156E-06   AT NODE        151
   INSTANCE: CUBE-1                                                                          
 LARGEST CORRECTION TO VOL. LM.    -1.453E-09   AT NODE        112
   INSTANCE: CUBE-1                                                                          
          THERE IS ZERO PR. FLUX  EVERYWHERE
 

 ***WARNING: THERE IS ZERO PR. FLUX EVERYWHERE IN THE MODEL BASED ON THE 
             DEFAULT CRITERION. PLEASE CHECK THE VALUE OF THE AVERAGE PR. FLUX 
             DURING THE CURRENT ITERATION TO VERIFY THAT THE PR. FLUX IS SMALL 
             ENOUGH TO BE TREATED AS ZERO. IF NOT, PLEASE USE THE SOLUTION 
             CONTROLS TO RESET THE CRITERION FOR ZERO PR. FLUX.

 ITERATION SUMMARY FOR THE INCREMENT:   1 TOTAL ITERATIONS, OF WHICH
   0 ARE SEVERE DISCONTINUITY ITERATIONS AND  1 ARE EQUILIBRIUM ITERATIONS.

 TIME INCREMENT COMPLETED  4.151E-03,  FRACTION OF STEP COMPLETED   1.00    
 STEP TIME COMPLETED        1.00    ,  TOTAL TIME COMPLETED         1.00    


          THE ANALYSIS HAS BEEN COMPLETED



     ANALYSIS SUMMARY:
     TOTAL OF        111  INCREMENTS
                       0  CUTBACKS IN AUTOMATIC INCREMENTATION
                     112  ITERATIONS INCLUDING CONTACT ITERATIONS IF PRESENT
                     112  PASSES THROUGH THE EQUATION SOLVER OF WHICH 
                     112  INVOLVE MATRIX DECOMPOSITION, INCLUDING
                       0  DECOMPOSITION(S) OF THE MASS MATRIX
                       1  REORDERING OF EQUATIONS TO MINIMIZE WAVEFRONT
                       0  ADDITIONAL RESIDUAL EVALUATIONS FOR LINE SEARCHES
                       0  ADDITIONAL OPERATOR EVALUATIONS FOR LINE SEARCHES
                       0  WARNING MESSAGES DURING USER INPUT PROCESSING
                     112  WARNING MESSAGES DURING ANALYSIS
                       0  ANALYSIS WARNINGS ARE NUMERICAL PROBLEM MESSAGES
                       0  ANALYSIS WARNINGS ARE NEGATIVE EIGENVALUE MESSAGES
                       0  ERROR MESSAGES



     JOB TIME SUMMARY
       USER TIME (SEC)      =   39.200    
       SYSTEM TIME (SEC)    =   3.0000    
       TOTAL CPU TIME (SEC) =   42.200    
       WALLCLOCK TIME (SEC) =         43
