*Heading
** Job name: HE_PlaneStrain_0p3 Model name: HE-PlaneStrain
** Generated by: Abaqus/CAE 2022
*Preprint, echo=NO, model=NO, history=NO, contact=NO
**
** PARTS
**
*Part, name=Cube
*Node
      1,           5.,           0.,           5.
      2,           0.,           0.,           5.
      3,           0.,           0.,           0.
      4,           5.,           0.,           0.
      5,           0.,           5.,           5.
      6,           0.,           5.,           0.
      7,           5.,           5.,           0.
      8,           5.,           5.,           5.
      9,          4.5,           0.,           5.
     10,           4.,           0.,           5.
     11,          3.5,           0.,           5.
     12,           3.,           0.,           5.
     13,          2.5,           0.,           5.
     14,           2.,           0.,           5.
     15,          1.5,           0.,           5.
     16,           1.,           0.,           5.
     17,          0.5,           0.,           5.
     18,           0.,           0.,          4.5
     19,           0.,           0.,           4.
     20,           0.,           0.,          3.5
** ... 1435 like lines cut
*Element, type=C3D4
   1,  603,  604,  605,  606
   2,  603,  607,  608,  609
   3,  603,  610,  611,  612
   4,  603,  611,  610,  607
   5,  603,  606,  613,  610
   6,  608,  614,  615,  616
   7,  617,  614,  615,  608
   8,  614,  608,  618,  616
   9,  614,  618,  619,  620
  10,  614,  621,  622,  623
  11,  614,  624,  615,  623
  12,  614,  625,  608,  617
  13,  614,  625,  619,  618
  14,  614,  617,  626,  625
  15,  627,  628,  629,  630
  16,  605,  613,  631,  632
  17,  633,  634,  635,  636
  18,  617,  626,  622,  614
  19,  608,  625,  637,  617
  20,  603,  605,  608,  613
** ... 6783 like lines cut
*Nset, nset=Cube, generate
    1,  1455,     1
*Elset, elset=Cube, generate
    1,  6803,     1
** Section: Cube
*Solid Section, elset=Cube, material=Hyperelastic
,
*End Part
**  
**
** ASSEMBLY
**
*Assembly, name=Assembly
**  
*Instance, name=Cube-1, part=Cube
*End Instance
**  
*Nset, nset=Corner1, instance=Cube-1
 2,
*Nset, nset=Corner2, instance=Cube-1
 4,
*Nset, nset=XMAX, instance=Cube-1
   1,   4,   7,   8,  36,  37,  38,  39,  40,  41,  42,  43,  44,  81,  82,  83
  84,  85,  86,  87,  88,  89,  90,  91,  92,  93,  94,  95,  96,  97,  98,  99
 100, 101, 102, 103, 104, 105, 106, 107, 360, 361, 362, 363, 364, 365, 366, 367
 368, 369, 370, 371, 372, 373, 374, 375, 376, 377, 378, 379, 380, 381, 382, 383
 384, 385, 386, 387, 388, 389, 390, 391, 392, 393, 394, 395, 396, 397, 398, 399
 400, 401, 402, 403, 404, 405, 406, 407, 408, 409, 410, 411, 412, 413, 414, 415
 416, 417, 418, 419, 420, 421, 422, 423, 424, 425, 426, 427, 428, 429, 430, 431
 432, 433, 434, 435, 436, 437, 438, 439, 440
*Elset, elset=XMAX, instance=Cube-1
  138,  192,  483,  692,  694, 1194, 1553, 1555, 1649, 1661, 1662, 1663, 1676, 1695, 1888, 1891
 1908, 1961, 1986, 2025, 2028, 2086, 2246, 2866, 3027, 3312, 3332, 3369, 3416, 3418, 3453, 3510
 3530, 3553, 3563, 3578, 3586, 3591, 3599, 3601, 3621, 3628, 3637, 3642, 3661, 3662, 3669, 3671
 3683, 3686, 3697, 3700, 3704, 3705, 3715, 3716, 3731, 3732, 3738, 3747, 3749, 3752, 3753, 3761
 3762, 3770, 3776, 3790, 3791, 3794, 3795, 3809, 3812, 3813, 3818, 3824, 3832, 3835, 3839, 3841
 3853, 3860, 3881, 3886, 3888, 3891, 3897, 3898, 3900, 3919, 3924, 3925, 3927, 3938, 3945, 3953
 3959, 3977, 3978, 3984, 3988, 3997, 4002, 4023, 4033, 4037, 4044, 4046, 4049, 4072, 4077, 4080
 4088, 4092, 4095, 4097, 4103, 4113, 4122, 4126, 4128, 4133, 4134, 4137, 4144, 4151, 4154, 4155
 4157, 4158, 4162, 4163, 4166, 4171, 4175, 4187, 4276, 4279, 4281, 4327, 4338, 4346, 4383, 4391
 4392, 4396, 4447, 4454, 4470, 4502, 4512, 4570, 4571, 4573, 4593, 4602, 4655, 4658, 4674, 4739
 4749, 4758, 4801, 4815, 4837, 4843, 4849, 4906, 4922, 4930, 4935, 4959, 4976, 5022, 5080, 5126
 5198, 5208, 5226, 5350, 5368, 5396, 5424, 5427, 5433, 5451, 5454, 5497, 5789, 5872, 5873, 6192
 6195, 6282, 6436, 6562, 6705, 6745, 6782, 6792
*Nset, nset=XMIN, instance=Cube-1
   2,   3,   5,   6,  18,  19,  20,  21,  22,  23,  24,  25,  26,  45,  46,  47
  48,  49,  50,  51,  52,  53,  54,  55,  56,  57,  58,  59,  60,  61,  62,  63
  64,  65,  66,  67,  68,  69,  70,  71, 198, 199, 200, 201, 202, 203, 204, 205
 206, 207, 208, 209, 210, 211, 212, 213, 214, 215, 216, 217, 218, 219, 220, 221
 222, 223, 224, 225, 226, 227, 228, 229, 230, 231, 232, 233, 234, 235, 236, 237
 238, 239, 240, 241, 242, 243, 244, 245, 246, 247, 248, 249, 250, 251, 252, 253
 254, 255, 256, 257, 258, 259, 260, 261, 262, 263, 264, 265, 266, 267, 268, 269
 270, 271, 272, 273, 274, 275, 276, 277, 278
*Elset, elset=XMIN, instance=Cube-1
   47,  180,  222,  717,  809, 1035, 1216, 1230, 1299, 1360, 1493, 1558, 1638, 1680, 1766, 1812
 1818, 1931, 1938, 1943, 1998, 2000, 2037, 2040, 2044, 2045, 2110, 2112, 2113, 2115, 2172, 2173
 2217, 2225, 2232, 2361, 2368, 2389, 2409, 2433, 2446, 2455, 2472, 2489, 2496, 2497, 2499, 2503
 2509, 2510, 2515, 2516, 2517, 2522, 2523, 2524, 2552, 2553, 2560, 2562, 2567, 2591, 2592, 2598
 2603, 2604, 2605, 2620, 2624, 2638, 2641, 2657, 2663, 2664, 2670, 2680, 2686, 2689, 2701, 2731
 2743, 2751, 2761, 2790, 2809, 2818, 2822, 2846, 2855, 2864, 2878, 2884, 2896, 2903, 2905, 2914
 2926, 2946, 2981, 2986, 2994, 2997, 3001, 3007, 3010, 3017, 3037, 3042, 3069, 3078, 3090, 3091
 3095, 3099, 3112, 3127, 3197, 3201, 3257, 3268, 3333, 3451, 3883, 3951, 3960, 4003, 4210, 4223
 4224, 4233, 4235, 4236, 4242, 4261, 4289, 4324, 4348, 4358, 4364, 4365, 4368, 4404, 4430, 4435
 4534, 4545, 4547, 4549, 4641, 4699, 4701, 4770, 4802, 4830, 4839, 4890, 4949, 4988, 5010, 5038
 5064, 5071, 5085, 5086, 5088, 5090, 5099, 5161, 5163, 5164, 5183, 5194, 5203, 5238, 5251, 5255
 5270, 5278, 5291, 5295, 5317, 5363, 5458, 5481, 5559, 5621, 5732, 5892, 5905, 5909, 6025, 6026
 6032, 6037, 6211, 6212, 6333, 6409, 6545, 6598
*Nset, nset=YMAX, instance=Cube-1
   5,   6,   7,   8,  54,  55,  56,  57,  58,  59,  60,  61,  62,  72,  73,  74
  75,  76,  77,  78,  79,  80,  99, 100, 101, 102, 103, 104, 105, 106, 107, 108
 109, 110, 111, 112, 113, 114, 115, 116, 522, 523, 524, 525, 526, 527, 528, 529
 530, 531, 532, 533, 534, 535, 536, 537, 538, 539, 540, 541, 542, 543, 544, 545
 546, 547, 548, 549, 550, 551, 552, 553, 554, 555, 556, 557, 558, 559, 560, 561
 562, 563, 564, 565, 566, 567, 568, 569, 570, 571, 572, 573, 574, 575, 576, 577
 578, 579, 580, 581, 582, 583, 584, 585, 586, 587, 588, 589, 590, 591, 592, 593
 594, 595, 596, 597, 598, 599, 600, 601, 602
*Elset, elset=YMAX, instance=Cube-1
  114,  140,  171,  404,  434,  525,  624,  673,  775,  936,  970, 1045, 1091, 1139, 1175, 1449
 1497, 1528, 1652, 1889, 1933, 1937, 1944, 2014, 2379, 2415, 2422, 2443, 2467, 2473, 2478, 2538
 2555, 2712, 2714, 2725, 2762, 2842, 2843, 2930, 2941, 2958, 3021, 3032, 3052, 3057, 3084, 3101
 3117, 3118, 3155, 3172, 3219, 3285, 3286, 3297, 3356, 3395, 3406, 3441, 3573, 3605, 3612, 3652
 3773, 3825, 3833, 3854, 3922, 3947, 3957, 3968, 3981, 4043, 4053, 4056, 4059, 4068, 4070, 4111
 4112, 4117, 4188, 4191, 4201, 4211, 4214, 4228, 4243, 4271, 4303, 4310, 4312, 4329, 4337, 4353
 4399, 4409, 4566, 4621, 4670, 4700, 4709, 4722, 4749, 4751, 4756, 4759, 4767, 4797, 4809, 4811
 4819, 4823, 4829, 4832, 4853, 4858, 4861, 4862, 4864, 4871, 4875, 4880, 4891, 4892, 4897, 4899
 4901, 4913, 4923, 4927, 4932, 4936, 4941, 4943, 4944, 4955, 4958, 4961, 4963, 4966, 4971, 4972
 4977, 4978, 4995, 4996, 5003, 5024, 5031, 5039, 5044, 5046, 5047, 5051, 5054, 5063, 5065, 5073
 5084, 5091, 5094, 5096, 5097, 5103, 5117, 5127, 5132, 5137, 5143, 5147, 5166, 5195, 5303, 5365
 5421, 5423, 5444, 5515, 5533, 5534, 5545, 5556, 5558, 5641, 5829, 5831, 5883, 5888, 6006, 6153
 6155, 6172, 6237, 6534, 6537, 6563, 6566, 6579
*Nset, nset=YMIN, instance=Cube-1
   1,   2,   3,   4,   9,  10,  11,  12,  13,  14,  15,  16,  17,  18,  19,  20
  21,  22,  23,  24,  25,  26,  27,  28,  29,  30,  31,  32,  33,  34,  35,  36
  37,  38,  39,  40,  41,  42,  43,  44, 117, 118, 119, 120, 121, 122, 123, 124
 125, 126, 127, 128, 129, 130, 131, 132, 133, 134, 135, 136, 137, 138, 139, 140
 141, 142, 143, 144, 145, 146, 147, 148, 149, 150, 151, 152, 153, 154, 155, 156
 157, 158, 159, 160, 161, 162, 163, 164, 165, 166, 167, 168, 169, 170, 171, 172
 173, 174, 175, 176, 177, 178, 179, 180, 181, 182, 183, 184, 185, 186, 187, 188
 189, 190, 191, 192, 193, 194, 195, 196, 197
*Elset, elset=YMIN, instance=Cube-1
  120,  121,  185,  427,  500,  535,  641,  745,  789,  832,  888,  894, 1209, 1274, 1324, 1350
 1665, 1667, 1669, 1681, 1684, 1692, 1720, 1722, 1736, 1740, 1743, 1746, 1752, 1762, 1764, 1781
 1801, 1804, 1826, 1838, 1843, 1844, 1848, 1860, 1868, 1869, 1873, 1884, 1893, 1900, 1903, 1905
 1910, 1915, 1916, 1917, 1918, 1924, 1930, 1935, 1947, 1951, 1958, 1979, 1981, 1984, 1990, 2011
 2015, 2027, 2050, 2052, 2055, 2061, 2071, 2077, 2087, 2104, 2133, 2137, 2140, 2142, 2145, 2155
 2164, 2200, 2201, 2208, 2210, 2218, 2219, 2238, 2249, 2263, 2265, 2272, 2294, 2299, 2300, 2323
 2324, 2327, 2333, 2365, 2458, 2476, 2501, 2502, 2511, 2512, 2513, 2520, 2565, 2580, 2612, 2721
 2736, 2788, 2834, 2897, 3061, 3067, 3071, 3129, 3133, 3187, 3188, 3191, 3192, 3196, 3202, 3215
 3303, 3322, 3329, 3352, 3364, 3367, 3376, 3381, 3477, 3610, 3624, 3634, 3635, 3644, 3737, 3779
 3797, 3829, 3852, 3859, 3863, 3867, 3873, 3874, 3892, 3952, 4076, 4093, 4129, 4349, 4389, 4408
 4456, 4463, 4517, 4520, 4556, 4572, 4574, 4580, 4589, 4610, 4636, 4649, 4777, 4783, 4827, 4991
 5008, 5034, 5067, 5186, 5191, 5192, 5212, 5213, 5310, 5332, 5342, 5352, 5455, 5480, 5758, 5900
 5903, 6068, 6394, 6546, 6617, 6623, 6627, 6666
*Nset, nset=ZMAX, instance=Cube-1
   1,   2,   5,   8,   9,  10,  11,  12,  13,  14,  15,  16,  17,  45,  46,  47
  48,  49,  50,  51,  52,  53,  90,  91,  92,  93,  94,  95,  96,  97,  98, 108
 109, 110, 111, 112, 113, 114, 115, 116, 441, 442, 443, 444, 445, 446, 447, 448
 449, 450, 451, 452, 453, 454, 455, 456, 457, 458, 459, 460, 461, 462, 463, 464
 465, 466, 467, 468, 469, 470, 471, 472, 473, 474, 475, 476, 477, 478, 479, 480
 481, 482, 483, 484, 485, 486, 487, 488, 489, 490, 491, 492, 493, 494, 495, 496
 497, 498, 499, 500, 501, 502, 503, 504, 505, 506, 507, 508, 509, 510, 511, 512
 513, 514, 515, 516, 517, 518, 519, 520, 521
*Elset, elset=ZMAX, instance=Cube-1
  298,  734,  955, 1461, 1494, 1686, 1716, 1719, 1754, 1756, 1763, 1791, 1849, 1862, 1898, 2018
 2359, 2387, 2398, 2411, 2413, 2430, 2434, 2453, 2498, 2519, 2533, 2541, 2564, 2590, 2609, 2625
 2637, 2753, 3059, 3220, 3422, 3488, 3583, 3592, 3602, 3641, 3670, 3689, 3691, 3698, 3723, 3726
 3742, 3792, 3804, 3858, 3915, 3920, 4038, 4078, 4176, 4189, 4200, 4221, 4238, 4266, 4274, 4304
 4317, 4319, 4322, 4333, 4339, 4343, 4345, 4359, 4360, 4363, 4369, 4371, 4372, 4374, 4385, 4397
 4405, 4411, 4412, 4415, 4428, 4437, 4439, 4440, 4441, 4444, 4446, 4448, 4450, 4453, 4462, 4474
 4480, 4481, 4482, 4487, 4489, 4490, 4497, 4499, 4503, 4505, 4510, 4515, 4523, 4529, 4530, 4538
 4541, 4543, 4553, 4559, 4575, 4576, 4582, 4583, 4588, 4592, 4594, 4598, 4612, 4620, 4625, 4626
 4628, 4634, 4638, 4642, 4648, 4661, 4664, 4665, 4667, 4669, 4671, 4672, 4678, 4681, 4683, 4685
 4686, 4690, 4691, 4694, 4725, 4730, 4732, 4734, 4750, 4757, 4780, 4792, 4794, 4798, 4807, 4826
 4924, 4939, 5029, 5176, 5177, 5201, 5216, 5218, 5234, 5245, 5366, 5370, 5488, 5577, 5579, 5600
 5628, 5629, 5661, 5662, 5749, 5881, 5902, 5906, 5919, 6008, 6027, 6127, 6191, 6194, 6241, 6259
 6328, 6346, 6375, 6378, 6396, 6408, 6474, 6699
*Nset, nset=ZMIN, instance=Cube-1
   3,   4,   6,   7,  27,  28,  29,  30,  31,  32,  33,  34,  35,  63,  64,  65
  66,  67,  68,  69,  70,  71,  72,  73,  74,  75,  76,  77,  78,  79,  80,  81
  82,  83,  84,  85,  86,  87,  88,  89, 279, 280, 281, 282, 283, 284, 285, 286
 287, 288, 289, 290, 291, 292, 293, 294, 295, 296, 297, 298, 299, 300, 301, 302
 303, 304, 305, 306, 307, 308, 309, 310, 311, 312, 313, 314, 315, 316, 317, 318
 319, 320, 321, 322, 323, 324, 325, 326, 327, 328, 329, 330, 331, 332, 333, 334
 335, 336, 337, 338, 339, 340, 341, 342, 343, 344, 345, 346, 347, 348, 349, 350
 351, 352, 353, 354, 355, 356, 357, 358, 359
*Elset, elset=ZMIN, instance=Cube-1
   27,  178,  261,  266,  337, 1206, 1375, 1386, 1549, 1607, 1648, 1650, 1946, 1949, 2073, 2192
 2212, 2243, 2247, 2253, 2255, 2271, 2281, 2283, 2292, 2329, 2340, 2661, 2705, 2723, 2738, 2779
 2794, 2810, 2833, 2859, 2883, 2885, 2918, 2921, 2969, 2973, 2991, 2993, 2999, 3011, 3013, 3025
 3041, 3054, 3055, 3058, 3070, 3073, 3074, 3080, 3083, 3114, 3126, 3130, 3139, 3145, 3146, 3147
 3149, 3150, 3151, 3161, 3162, 3164, 3167, 3177, 3179, 3193, 3203, 3207, 3214, 3218, 3227, 3236
 3246, 3248, 3249, 3250, 3261, 3262, 3266, 3269, 3272, 3273, 3275, 3277, 3280, 3282, 3287, 3299
 3308, 3315, 3319, 3326, 3344, 3345, 3351, 3363, 3366, 3371, 3377, 3385, 3386, 3392, 3400, 3401
 3419, 3423, 3429, 3442, 3443, 3455, 3464, 3490, 3505, 3506, 3527, 3547, 3549, 3559, 3568, 3576
 3823, 3850, 3861, 3896, 3931, 3973, 4017, 4022, 4040, 4041, 4107, 4136, 4153, 4165, 4222, 4232
 4268, 4707, 4720, 4731, 4737, 4766, 4768, 4825, 4835, 4846, 4956, 4993, 4999, 5007, 5023, 5057
 5066, 5102, 5106, 5120, 5122, 5129, 5136, 5140, 5173, 5197, 5229, 5237, 5274, 5275, 5279, 5285
 5341, 5345, 5367, 5464, 5471, 5472, 5498, 5541, 5570, 5589, 5610, 5830, 6067, 6069, 6074, 6075
 6136, 6178, 6183, 6184, 6625, 6632, 6727, 6767
*End Assembly
** 
** MATERIALS
** 
*Material, name=Hyperelastic
*Hyperelastic, n=2, ogden
 0.5,   2.,  0.1,   6., 0.01,   0.
*Material, name="Linear Elastic"
*Elastic
10., 0.3
** ----------------------------------------------------------------
** 
** STEP: Compression
** 
*Step, name=Compression, nlgeom=YES, inc=10000
*Static
0.0001, 1., 1e-09, 0.01
** 
** BOUNDARY CONDITIONS
** 
** Name: BC-1 Type: Displacement/Rotation
*Boundary
YMIN, 2, 2
** Name: BC-2 Type: Displacement/Rotation
*Boundary
YMAX, 2, 2, 1.5
** Name: BC-7 Type: Displacement/Rotation
*Boundary
Corner1, 1, 1
** Name: BC-9 Type: Displacement/Rotation
*Boundary
ZMIN, 3, 3
** Name: BC-10 Type: Displacement/Rotation
*Boundary
ZMAX, 3, 3
** 
** OUTPUT REQUESTS
** 
*Restart, write, frequency=0
** 
** FIELD OUTPUT: F-Output-1
** 
*Output, field, variable=PRESELECT
** 
** HISTORY OUTPUT: H-Output-1
** 
*Output, history, variable=PRESELECT
*End Step
